%Nproc=28
%chk=holo1.0.chk
%mem=80GB
%NoSave
#MP2(semidirect)/Gen scf=(tight,noincore) Test
#IOP(5/87=12) Density=Current Pop=(MK,readradii) iop(6/33=2) iop(6/42=6)

holo_loop_3_model_1.0 

   0   1
   C     31.17400000    25.13600000    43.37400000
   C     31.60400000    25.75500000    44.69700000
   O     31.05600000    25.65300000    45.79200000
   O     32.73000000    26.50800000    44.54200000
   H     30.30800000    25.67300000    42.98700000
   H     31.99300000    25.20300000    42.65800000
   H     30.91200000    24.08900000    43.53000000
   H     32.88100000    26.58700000    43.59800000
   C     28.06200000    27.70400000    48.97400000
   C     28.72800000    26.34300000    48.83100000
   O     28.23200000    25.45900000    48.10000000
   O     29.75900000    26.07000000    49.48400000
   H     27.09600000    27.58500000    49.46500000
   H     28.69600000    28.35800000    49.57300000
   H     27.91600000    28.14300000    47.98700000
   C     33.16300000    26.91500000    49.88300000
   C     32.69600000    25.46600000    49.84300000
   N     32.43200000    24.93000000    51.03600000
   O     32.64100000    24.81800000    48.80000000
   H     34.11900000    27.00200000    49.36700000
   H     32.42600000    27.54900000    49.39000000
   H     33.27900000    27.23100000    50.92000000
  HD     32.80200000    25.31000000    51.89500000
  HD     32.17900000    23.95300000    51.08800000
   C     34.46600000    22.23200000    46.91600000
   C     33.03900000    21.82600000    46.57700000
   O     32.16100000    22.68600000    46.55300000
   H     35.09400000    22.12200000    46.03200000
   H     34.48000000    23.27100000    47.24400000
   H     34.84600000    21.59300000    47.71300000
   N     32.77500000    20.53300000    46.37700000
   H     33.51900000    19.85200000    46.42900000
   H     31.83100000    20.23600000    46.17400000
   C     28.70100000    18.89500000    49.33800000
   O     27.99600000    20.11400000    49.26500000
   H     28.75400000    18.49200000    48.32700000
   H     29.69800000    19.04200000    49.75400000
   H     28.19400000    18.22700000    50.03400000
   H     28.29600000    20.82200000    48.68900000
   C     26.48900000    22.20000000    46.25700000
   C     27.96200000    22.55500000    46.40700000
   O     28.28500000    23.59600000    45.79600000
   O     28.73300000    21.76200000    46.99000000
   H     25.92200000    23.09900000    46.01600000
   H     26.37000000    21.47100000    45.45600000
   H     26.11900000    21.77800000    47.19100000
  Ca     30.28500000    23.86400000    47.80200000
   O     30.54600000    22.80100000    50.53100000
   H     30.27700000    21.92300000    50.80100000
   H     30.02600000    23.39000000    51.07800000

C O H 0
aug-cc-pVTZ 
****
@/home/pzhang5/ca_ccpvtz_basisset.gbs/N

Ca 1.70




