%Nproc=28
%chk=holo0.0.chk
%mem=80GB
%NoSave
#MP2(semidirect)/Gen scf=(tight,noincore) Test
#IOP(5/87=12) Density=Current Pop=(MK,readradii) iop(6/33=2) iop(6/42=6)

holo_loop_3_model_0.0 

   0   1
   C     52.17700000    50.68400000    46.79200000
   C     52.98600000    50.31900000    48.02900000
   O     52.78300000    50.86200000    49.11200000
   O     54.00100000    49.41600000    47.90300000
   H     51.28100000    51.22800000    47.09200000
   H     52.77900000    51.31200000    46.13500000
   H     51.89000000    49.77500000    46.26400000
   H     54.13500000    49.37900000    46.95300000
   C     54.07300000    53.53500000    52.90600000
   C     53.36400000    52.18800000    52.89500000
   O     53.07600000    51.54300000    51.86300000
   O     52.92200000    51.82100000    54.00500000
   H     55.03000000    53.44600000    52.39100000
   H     53.45500000    54.27600000    52.39800000
   H     54.24300000    53.84800000    53.93600000
   C     55.22600000    48.95800000    52.95600000
   C     53.78500000    48.47200000    52.90000000
   N     53.20500000    48.17600000    54.06500000
   O     53.16200000    48.27800000    51.85800000
   H     55.85200000    48.30800000    52.34500000
   H     55.28100000    49.97800000    52.57500000
   H     55.57800000    48.93500000    53.98700000
  HD     53.76100000    48.26100000    54.90400000
  HD     52.22000000    47.95600000    54.01700000
   C     51.84600000    45.76400000    49.35400000
   C     50.93200000    46.95700000    49.10900000
   O     51.29400000    48.12400000    49.24000000
   H     52.76800000    46.10400000    49.82600000
   H     51.34500000    45.05000000    50.00800000
   H     52.08100000    45.28400000    48.40400000
   N     49.71100000    46.55800000    48.74500000
   H     49.50500000    45.57300000    48.66500000
   H     48.99400000    47.24200000    48.54900000
   C     46.43300000    48.22900000    52.70700000
   O     46.74100000    49.60400000    52.72800000
   H     46.19600000    47.93900000    51.68300000
   H     47.27000000    47.68800000    53.14800000
   H     45.62700000    48.03700000    53.41600000
   H     47.35400000    49.87900000    52.04300000
   C     47.45300000    52.22700000    50.68600000
   C     48.66700000    51.34700000    50.42200000
   O     48.71000000    50.19100000    50.89600000
   O     49.73700000    51.89500000    50.08200000
   H     46.61700000    51.60500000    51.00500000
   H     47.68900000    52.94700000    51.46900000
   H     47.18300000    52.75800000    49.77300000
  Ca     51.32900000    49.91800000    50.99500000
   O     50.32500000    48.01800000    52.88400000
   H     49.81400000    47.21700000    52.76700000
   H     50.28400000    48.19400000    53.82400000

C O H 0
aug-cc-pVTZ 
****
@/home/pzhang5/ca_ccpvtz_basisset.gbs/N

Ca 1.70




