%Nproc=28
%chk=holo3.1.chk
%mem=80GB
%NoSave
#MP2(semidirect)/Gen scf=(tight,noincore) Test
#IOP(5/87=12) Density=Current Pop=(MK,readradii) iop(6/33=2) iop(6/42=6)

holo_loop_3_model_3.1 

   0   1
   C     37.65800000    54.80700000    44.31100000
   C     38.38700000    54.82100000    45.64700000
   O     38.02100000    55.41100000    46.66100000
   O     39.57300000    54.15300000    45.55500000
   H     36.76100000    55.42300000    44.38100000
   H     38.31200000    55.20500000    43.53500000
   H     37.37700000    53.78400000    44.06000000
   H     39.82600000    53.88500000    44.66900000
   C     38.19800000    60.24700000    48.61200000
   C     37.46000000    58.98600000    49.03900000
   O     36.41800000    59.20200000    49.69500000
   O     37.88600000    57.84800000    48.74400000
   H     39.17000000    59.97600000    48.20000000
   H     37.61500000    60.77100000    47.85400000
   H     38.33900000    60.89700000    49.47600000
   C     39.78200000    55.40500000    51.18300000
   C     38.31700000    55.25000000    50.80200000
   N     37.38400000    55.39600000    51.74600000
   O     37.99100000    54.81800000    49.69800000
   H     40.34200000    55.78200000    50.32700000
   H     39.87000000    56.10800000    52.01200000
   H     40.18500000    54.43700000    51.48200000
  HD     37.75200000    55.69400000    52.63800000
  HD     36.45400000    55.02800000    51.60900000
   C     36.68200000    51.67100000    48.29800000
   C     35.67400000    52.51300000    47.53000000
   O     36.01200000    53.65800000    47.23800000
   H     37.56300000    52.27300000    48.52000000
   H     36.23400000    51.32700000    49.23000000
   H     36.97300000    50.81100000    47.69500000
   N     34.56400000    51.89000000    47.12600000
   H     34.40800000    50.92400000    47.37600000
   H     33.88100000    52.38500000    46.57000000
   C     30.34800000    54.13300000    50.02100000
   O     30.27300000    55.46500000    49.56400000
   H     30.45500000    53.41000000    49.21200000
   H     31.22400000    54.02200000    50.65900000
   H     29.42000000    53.95500000    50.56500000
   H     30.40000000    56.11900000    50.25500000
   C     32.00300000    57.13700000    46.64100000
   C     33.38100000    56.51900000    46.83600000
   O     33.39000000    55.53000000    47.59900000
   O     34.43700000    57.05500000    46.43400000
   H     31.30600000    56.70200000    47.35700000
   H     32.06100000    58.21400000    46.80000000
   H     31.65400000    56.93700000    45.62800000
  Ca     36.09700000    56.05100000    48.36000000
   O     34.62000000    54.38000000    49.97000000
   H     34.11600000    53.92200000    50.64200000
   H     33.96300000    54.69700000    49.35000000

C O H 0
aug-cc-pVTZ 
****
@/home/pzhang5/ca_ccpvtz_basisset.gbs/N

Ca 1.70




