%Nproc=28
%chk=holo5.0.chk
%mem=80GB
%NoSave
#MP2(semidirect)/Gen scf=(tight,noincore) Test
#IOP(5/87=12) Density=Current Pop=(MK,readradii) iop(6/33=2) iop(6/42=6)

holo_loop_3_model_5.0 

   0   1
   C     35.15000000    19.36100000    40.96900000
   C     34.76000000    20.40200000    42.00800000
   O     33.79500000    20.23300000    42.75000000
   O     35.50200000    21.54700000    42.02400000
   H     36.16300000    19.01200000    41.16800000
   H     34.46000000    18.51900000    41.02100000
   H     35.10800000    19.80600000    39.97500000
   H     36.24000000    21.41700000    41.42400000
   C     29.41500000    21.52900000    44.64900000
   C     30.36600000    20.70800000    45.50700000
   O     29.91100000    20.22600000    46.56700000
   O     31.52700000    20.49800000    45.09300000
   H     28.52600000    21.77800000    45.22900000
   H     29.91000000    22.44700000    44.33300000
   H     29.12600000    20.95100000    43.77100000
   C     34.34200000    22.31200000    47.18200000
   C     34.53400000    20.80600000    47.08200000
   N     34.14200000    20.05000000    48.11100000
   O     34.80600000    20.18400000    46.05700000
   H     33.39900000    22.52500000    47.68600000
   H     35.16300000    22.74700000    47.75200000
   H     34.32400000    22.74400000    46.18100000
  HD     33.66700000    20.49400000    48.88300000
  HD     34.39700000    19.07600000    48.18900000
   C     37.53700000    18.21900000    45.26800000
   C     36.47800000    17.42400000    44.51900000
   O     35.50200000    17.94800000    43.98600000
   H     38.40100000    18.37200000    44.62100000
   H     37.12700000    19.18600000    45.56100000
   H     37.84300000    17.66900000    46.15800000
   N     36.59600000    16.09500000    44.55400000
   H     37.38000000    15.67000000    45.02800000
   H     35.90100000    15.51400000    44.10600000
   C     32.13900000    13.61100000    46.94200000
   O     31.22900000    14.46200000    46.28300000
   H     32.67500000    13.22500000    46.07500000
   H     32.68600000    14.13500000    47.72600000
   H     31.72500000    12.84000000    47.59200000
   H     31.75000000    15.08900000    45.77700000
   C     30.69400000    15.42700000    42.84900000
   C     31.69900000    16.46900000    43.32000000
   O     31.52800000    17.66900000    43.01600000
   O     32.57100000    16.06600000    44.11900000
   H     29.80100000    15.92800000    42.47400000
   H     31.13600000    14.82900000    42.05200000
   H     30.42400000    14.77900000    43.68300000
  Ca     33.12700000    18.49500000    44.86300000
   O     34.18700000    16.70200000    46.74400000
   H     34.27500000    16.81100000    47.69100000
   H     34.67200000    15.90000000    46.54900000

C O H 0
aug-cc-pVTZ 
****
@/home/pzhang5/ca_ccpvtz_basisset.gbs/N

Ca 1.70




