%chk=Ng-293_loop3_62.0.chk
%nprocshared=48
%mem=10GB
%nosave
#b3lyp/svp scf=(tight,noincore) Test 
#IOP(5/87=12) Density=Current Pop=(MK,readradii) iop(6/33=2) iop(6/42=6)

Ng-293_loop3_62.0 

   0   1
   C     40.72000000    84.88000000    76.27000000
   C     40.60000000    84.76000000    74.75000000
   O     41.54000000    85.03000000    74.01000000
   H     41.22100000    85.81500000    76.52200000
   H     39.72500000    84.87000000    76.71600000
   H     41.30100000    84.04200000    76.65600000
   N     39.41000000    84.38000000    74.29000000
   C     39.12000000    84.16000000    72.89000000
   C     38.25000000    82.94000000    72.60000000
   O     37.61000000    82.44000000    73.52000000
   C     38.48000000    85.44000000    72.38000000
   C     38.43000000    85.62000000    70.87000000
   O     39.51000000    85.51000000    70.24000000
   O     37.33000000    85.94000000    70.36000000
   H     38.73000000    84.02000000    74.95000000
   H     40.07000000    83.88000000    72.44000000
   H     39.02000000    86.29000000    72.79000000
   H     37.46000000    85.51000000    72.77000000
   N     38.39000000    82.42000000    71.38000000
   C     37.62000000    81.30000000    70.87000000
   C     36.13000000    81.57000000    70.75000000
   O     35.51000000    82.25000000    71.57000000
   C     37.87000000    79.98000000    71.60000000
   C     39.32000000    79.63000000    71.89000000
   C     40.08000000    79.42000000    70.58000000
   C     41.58000000    79.16000000    70.69000000
   N     42.21000000    78.71000000    69.44000000
   H     39.19000000    82.75000000    70.87000000
   H     37.95000000    81.20000000    69.84000000
   H     37.45000000    79.17000000    71.00000000
   H     37.41000000    80.09000000    72.58000000
   H     39.26000000    78.70000000    72.46000000
   H     39.90000000    80.38000000    72.44000000
   H     39.98000000    80.26000000    69.89000000
   H     39.57000000    78.66000000    69.99000000
   H     41.79000000    78.46000000    71.50000000
   H     41.98000000    80.13000000    70.99000000
   H     42.09000000    79.36000000    68.68000000
   H     43.20000000    78.58000000    69.60000000
   H     41.90000000    77.78000000    69.20000000
   N     35.49000000    80.96000000    69.76000000
   C     34.08000000    81.04000000    69.44000000
   C     33.17000000    80.38000000    70.46000000
   O     31.99000000    80.73000000    70.44000000
   C     33.86000000    80.39000000    68.08000000
   C     34.46000000    79.00000000    67.89000000
   O     35.68000000    78.76000000    67.76000000
   O     33.68000000    78.03000000    67.96000000
   H     36.03000000    80.58000000    68.99000000
   H     33.79000000    82.09000000    69.51000000
   H     34.31000000    81.00000000    67.29000000
   H     32.79000000    80.31000000    67.87000000
   N     33.66000000    79.39000000    71.21000000
   C     33.00000000    78.89000000    72.40000000
   C     31.63000000    78.25000000    72.20000000
   O     30.82000000    78.27000000    73.12000000
   H     34.63000000    79.13000000    71.08000000
   H     32.90000000    79.71000000    73.11000000
   H     33.63000000    78.13000000    72.87000000
   N     31.26000000    77.75000000    71.02000000
   C     29.91000000    77.40000000    70.64000000
   C     29.12000000    76.44000000    71.52000000
   O     29.50000000    75.28000000    71.71000000
   C     29.97000000    76.92000000    69.20000000
   C     29.78000000    78.12000000    68.28000000
   N     30.86000000    78.50000000    67.60000000
   O     28.72000000    78.74000000    68.23000000
   H     32.01000000    77.69000000    70.34000000
   H     29.31000000    78.31000000    70.65000000
   H     29.17000000    76.26000000    68.88000000
   H     30.92000000    76.42000000    69.00000000
   H     31.72000000    77.98000000    67.63000000
   H     30.77000000    79.33000000    67.03000000
   N     27.91000000    76.87000000    71.86000000
   C     26.87000000    75.99000000    72.36000000
   C     26.94000000    75.57000000    73.82000000
   O     27.25000000    76.36000000    74.71000000
   H     27.73000000    77.86000000    71.85000000
   H     26.80000000    75.04000000    71.83000000
   H     25.89000000    76.40000000    72.12000000
   N     26.58000000    74.32000000    74.11000000
   C     26.60000000    73.75000000    75.45000000
   C     27.97000000    73.47000000    76.06000000
   O     28.03000000    73.05000000    77.21000000
   C     25.60000000    74.58000000    76.25000000
   C     24.96000000    73.95000000    77.47000000
   C     25.52000000    74.17000000    78.73000000
   C     23.95000000    72.99000000    77.32000000
   C     25.02000000    73.44000000    79.82000000
   C     23.44000000    72.23000000    78.37000000
   C     23.95000000    72.53000000    79.65000000
   O     23.63000000    71.80000000    80.75000000
   H     26.34000000    73.73000000    73.33000000
   H     26.12000000    72.79000000    75.27000000
   H     24.73000000    74.85000000    75.65000000
   H     26.12000000    75.48000000    76.58000000
   H     26.35000000    74.85000000    78.86000000
   H     23.52000000    72.84000000    76.34000000
   H     25.49000000    73.43000000    80.78000000
   H     22.69000000    71.46000000    78.28000000
   H     22.99000000    71.12000000    80.51000000
   N     29.03000000    73.62000000    75.26000000
   C     30.41000000    73.32000000    75.59000000
   C     30.70000000    71.83000000    75.61000000
   O     31.51000000    71.29000000    74.86000000
   C     31.03000000    74.00000000    76.80000000
   C     30.52000000    75.42000000    77.04000000
   C     32.54000000    73.90000000    76.64000000
   C     30.77000000    76.32000000    75.83000000
   H     28.87000000    73.89000000    74.30000000
   H     30.96000000    73.71000000    74.73000000
   H     30.74000000    73.45000000    77.70000000
   H     31.08000000    75.84000000    77.87000000
   H     29.45000000    75.43000000    77.23000000
   H     32.95000000    74.44000000    77.49000000
   H     32.92000000    72.88000000    76.78000000
   H     32.86000000    74.25000000    75.65000000
   H     30.20000000    75.96000000    74.98000000
   H     30.48000000    77.32000000    76.18000000
   H     31.79000000    76.35000000    75.43000000
   N     29.92000000    71.07000000    76.38000000
   C     29.93000000    69.63000000    76.20000000
   C     31.32000000    69.05000000    76.39000000
   O     31.73000000    68.06000000    75.78000000
   C     28.87000000    69.06000000    77.13000000
   O     29.05000000    69.33000000    78.51000000
   H     29.23000000    71.53000000    76.96000000
   H     29.54000000    69.56000000    75.18000000
   H     28.80000000    68.00000000    76.88000000
   H     27.92000000    69.55000000    76.90000000
   H     28.20000000    69.37000000    78.96000000
   N     32.10000000    69.62000000    77.31000000
   C     33.52000000    69.41000000    77.53000000
   C     34.49000000    69.25000000    76.37000000
   O     35.59000000    68.74000000    76.52000000
   C     33.59000000    68.35000000    78.62000000
   H     31.60000000    70.34000000    77.80000000
   H     33.77000000    70.41000000    77.91000000
   H     34.45000000    68.56000000    79.26000000
   H     32.68000000    68.43000000    79.21000000
   H     33.61000000    67.37000000    78.13000000
   N     34.02000000    69.64000000    75.18000000
   C     34.80000000    69.66000000    73.96000000
   C     35.73000000    70.86000000    73.88000000
   O     35.45000000    71.90000000    74.46000000
   C     33.93000000    69.67000000    72.71000000
   H     33.10000000    70.06000000    75.13000000
   H     35.42000000    68.77000000    73.90000000
   H     33.42000000    70.62000000    72.51000000
   H     34.40000000    69.31000000    71.80000000
   H     33.14000000    68.96000000    72.96000000
   N     36.78000000    70.74000000    73.06000000
   C     37.70000000    71.81000000    72.73000000
   C     38.40000000    72.46000000    73.92000000
   O     38.97000000    73.53000000    73.76000000
   C     37.06000000    72.81000000    71.78000000
   C     36.53000000    72.20000000    70.48000000
   C     35.59000000    73.16000000    69.78000000
   O     35.96000000    74.28000000    69.38000000
   O     34.38000000    72.85000000    69.64000000
   H     36.88000000    69.86000000    72.58000000
   H     38.41000000    71.31000000    72.08000000
   H     37.85000000    73.50000000    71.50000000
   H     36.26000000    73.36000000    72.28000000
   H     36.04000000    71.26000000    70.76000000
   H     37.41000000    71.91000000    69.91000000
   N     38.41000000    71.87000000    75.12000000
   C     38.94000000    72.55000000    76.28000000
   H     39.83300000    73.10700000    75.99700000
   H     38.19100000    73.23900000    76.67200000
   H     39.19700000    71.81800000    77.04500000
   H     37.96000000    70.97000000    75.25000000
  Ca     35.57000000    76.24000000    67.80000000
   O     35.49000000    74.21000000    66.22000000
   H     36.01000000    73.74000000    65.56000000
   H     34.77000000    73.61000000    66.42000000

Ca 1.70



