%chk=Ng-293_loop3_40.0.chk
%nprocshared=48
%mem=10GB
%nosave
#b3lyp/svp scf=(tight,noincore) Test 
#IOP(5/87=12) Density=Current Pop=(MK,readradii) iop(6/33=2) iop(6/42=6)

Ng-293_loop3_40.0 

   0   1
   C     52.65000000    29.17000000    13.81000000
   C     51.84000000    30.40000000    14.21000000
   O     51.63000000    31.35000000    13.46000000
   H     53.61100000    29.18600000    14.32400000
   H     52.10400000    28.26900000    14.08800000
   H     52.81500000    29.17700000    12.73300000
   N     51.33000000    30.39000000    15.44000000
   C     50.48000000    31.37000000    16.09000000
   C     49.09000000    31.54000000    15.51000000
   O     48.30000000    30.59000000    15.44000000
   C     50.44000000    31.01000000    17.58000000
   C     51.75000000    30.94000000    18.35000000
   O     52.63000000    31.80000000    18.11000000
   O     51.93000000    29.99000000    19.15000000
   H     51.43000000    29.50000000    15.89000000
   H     50.96000000    32.34000000    16.03000000
   H     49.90000000    30.07000000    17.60000000
   H     49.93000000    31.85000000    18.06000000
   N     48.65000000    32.78000000    15.26000000
   C     47.27000000    33.21000000    15.17000000
   C     46.48000000    32.79000000    16.40000000
   O     45.26000000    32.67000000    16.46000000
   C     46.66000000    32.70000000    13.87000000
   C     47.65000000    33.03000000    12.75000000
   C     46.82000000    32.97000000    11.48000000
   C     47.50000000    33.19000000    10.13000000
   N     46.69000000    32.66000000     9.03000000
   H     49.35000000    33.50000000    15.35000000
   H     47.32000000    34.29000000    15.20000000
   H     45.75000000    33.28000000    13.71000000
   H     46.23000000    31.71000000    13.96000000
   H     48.39000000    32.23000000    12.65000000
   H     48.15000000    34.00000000    12.88000000
   H     46.01000000    33.70000000    11.54000000
   H     46.43000000    31.95000000    11.45000000
   H     48.46000000    32.68000000    10.15000000
   H     47.67000000    34.26000000     9.98000000
   H     46.49000000    31.67000000     9.15000000
   H     45.80000000    33.13000000     8.97000000
   H     47.11000000    32.82000000     8.13000000
   N     47.18000000    32.71000000    17.54000000
   C     46.71000000    32.68000000    18.91000000
   C     47.61000000    33.36000000    19.94000000
   O     48.82000000    33.44000000    19.77000000
   C     46.65000000    31.19000000    19.23000000
   C     46.06000000    30.74000000    20.55000000
   O     45.33000000    31.54000000    21.18000000
   O     46.30000000    29.58000000    20.94000000
   H     48.18000000    32.81000000    17.53000000
   H     45.71000000    33.11000000    18.95000000
   H     47.61000000    30.69000000    19.10000000
   H     45.96000000    30.82000000    18.47000000
   N     46.99000000    34.05000000    20.90000000
   C     47.62000000    34.96000000    21.84000000
   C     47.55000000    34.25000000    23.19000000
   O     46.50000000    34.20000000    23.82000000
   H     46.00000000    33.90000000    21.05000000
   H     47.15000000    35.94000000    21.83000000
   H     48.68000000    35.00000000    21.61000000
   N     48.69000000    33.81000000    23.73000000
   C     48.69000000    32.87000000    24.84000000
   C     49.61000000    33.36000000    25.95000000
   O     49.55000000    32.72000000    27.00000000
   C     49.07000000    31.47000000    24.39000000
   C     48.14000000    30.89000000    23.34000000
   N     48.68000000    30.70000000    22.13000000
   O     46.94000000    30.78000000    23.57000000
   H     49.52000000    33.99000000    23.19000000
   H     47.77000000    32.92000000    25.42000000
   H     49.00000000    30.76000000    25.22000000
   H     50.10000000    31.52000000    24.04000000
   H     49.65000000    30.76000000    21.85000000
   H     48.11000000    30.29000000    21.40000000
   N     50.36000000    34.45000000    25.86000000
   C     51.13000000    34.94000000    26.99000000
   C     52.11000000    33.92000000    27.58000000
   O     52.76000000    33.19000000    26.84000000
   H     50.34000000    35.04000000    25.04000000
   H     50.48000000    35.24000000    27.81000000
   H     51.62000000    35.85000000    26.65000000
   N     52.18000000    33.76000000    28.90000000
   C     52.98000000    32.89000000    29.74000000
   C     52.68000000    31.42000000    29.52000000
   O     53.20000000    30.53000000    30.20000000
   C     54.45000000    33.28000000    29.79000000
   C     54.68000000    34.73000000    30.15000000
   C     54.85000000    35.72000000    29.18000000
   C     54.86000000    35.01000000    31.51000000
   C     55.33000000    36.97000000    29.59000000
   C     55.30000000    36.27000000    31.94000000
   C     55.53000000    37.25000000    30.95000000
   O     55.92000000    38.52000000    31.29000000
   H     51.42000000    34.30000000    29.30000000
   H     52.61000000    33.12000000    30.75000000
   H     54.84000000    33.08000000    28.79000000
   H     55.04000000    32.62000000    30.43000000
   H     54.63000000    35.54000000    28.13000000
   H     54.63000000    34.21000000    32.19000000
   H     55.52000000    37.78000000    28.90000000
   H     55.53000000    36.46000000    32.97000000
   H     55.73000000    38.57000000    32.23000000
   N     51.83000000    31.01000000    28.57000000
   C     51.25000000    29.68000000    28.45000000
   C     50.31000000    29.32000000    29.58000000
   O     49.18000000    28.86000000    29.39000000
   C     52.20000000    28.57000000    28.00000000
   C     52.88000000    28.92000000    26.68000000
   C     51.45000000    27.26000000    27.78000000
   C     54.15000000    28.10000000    26.47000000
   H     51.38000000    31.70000000    27.99000000
   H     50.53000000    29.76000000    27.64000000
   H     52.99000000    28.40000000    28.74000000
   H     53.00000000    30.00000000    26.59000000
   H     52.22000000    28.61000000    25.87000000
   H     51.98000000    26.45000000    27.27000000
   H     51.27000000    26.91000000    28.79000000
   H     50.59000000    27.44000000    27.13000000
   H     54.52000000    28.22000000    25.45000000
   H     54.93000000    28.35000000    27.20000000
   H     53.79000000    27.08000000    26.44000000
   N     50.64000000    29.53000000    30.86000000
   C     49.75000000    29.57000000    32.00000000
   C     49.20000000    28.22000000    32.44000000
   O     48.32000000    28.19000000    33.30000000
   C     50.47000000    30.23000000    33.18000000
   O     51.14000000    31.42000000    32.82000000
   H     51.59000000    29.86000000    30.99000000
   H     48.91000000    30.22000000    31.79000000
   H     51.28000000    29.55000000    33.42000000
   H     49.80000000    30.37000000    34.02000000
   H     51.40000000    31.87000000    33.63000000
   N     49.68000000    27.10000000    31.91000000
   C     48.98000000    25.83000000    31.85000000
   C     47.55000000    25.90000000    31.32000000
   O     46.73000000    25.02000000    31.58000000
   C     49.19000000    25.12000000    33.18000000
   H     50.53000000    27.13000000    31.35000000
   H     49.44000000    25.29000000    31.03000000
   H     50.25000000    24.95000000    33.35000000
   H     48.78000000    25.72000000    33.99000000
   H     48.66000000    24.17000000    33.28000000
   N     47.18000000    26.90000000    30.52000000
   C     45.84000000    26.96000000    29.99000000
   C     45.57000000    26.10000000    28.77000000
   O     46.46000000    25.77000000    27.99000000
   C     45.46000000    28.43000000    29.83000000
   H     47.83000000    27.62000000    30.22000000
   H     45.21000000    26.61000000    30.81000000
   H     46.19000000    29.06000000    29.33000000
   H     44.59000000    28.66000000    29.21000000
   H     45.22000000    28.78000000    30.84000000
   N     44.27000000    25.87000000    28.56000000
   C     43.73000000    25.17000000    27.41000000
   C     44.43000000    23.84000000    27.14000000
   O     45.02000000    23.69000000    26.07000000
   C     43.60000000    26.15000000    26.25000000
   C     42.74000000    27.38000000    26.50000000
   C     43.21000000    28.44000000    25.52000000
   O     42.70000000    28.58000000    24.38000000
   O     44.05000000    29.30000000    25.85000000
   H     43.56000000    26.17000000    29.21000000
   H     42.72000000    24.83000000    27.65000000
   H     43.18000000    25.68000000    25.37000000
   H     44.60000000    26.40000000    25.89000000
   H     42.84000000    27.74000000    27.53000000
   H     41.67000000    27.24000000    26.31000000
   N     44.36000000    22.94000000    28.12000000
   C     45.07000000    21.68000000    28.13000000
   H     46.02400000    21.80500000    28.64300000
   H     44.47400000    20.93000000    28.65000000
   H     45.24900000    21.35500000    27.10500000
   H     43.93000000    23.19000000    29.00000000
  Ca     44.62000000    29.92000000    23.16000000
   O     46.03000000    27.81000000    23.64000000
   H     46.57000000    27.18000000    24.11000000
   H     46.29000000    27.72000000    22.73000000

Ca 1.70



