%chk=Ng-293_loop3_61.0.chk
%nprocshared=48
%mem=10GB
%nosave
#b3lyp/svp scf=(tight,noincore) Test 
#IOP(5/87=12) Density=Current Pop=(MK,readradii) iop(6/33=2) iop(6/42=6)

Ng-293_loop3_61.0 

   0   1
   C     39.00000000    12.71000000     0.24000000
   C     37.96000000    13.32000000    -0.69000000
   O     37.26000000    12.58000000    -1.37000000
   H     39.86600000    13.36900000     0.29800000
   H     38.57100000    12.58600000     1.23400000
   H     39.30900000    11.73900000    -0.14700000
   N     37.92000000    14.64000000    -0.91000000
   C     37.31000000    15.28000000    -2.05000000
   C     35.80000000    15.32000000    -1.84000000
   O     35.19000000    15.23000000    -0.78000000
   C     38.02000000    16.61000000    -2.27000000
   C     37.65000000    17.17000000    -3.64000000
   O     37.28000000    18.34000000    -3.86000000
   O     37.84000000    16.43000000    -4.63000000
   H     38.40000000    15.26000000    -0.26000000
   H     37.50000000    14.59000000    -2.87000000
   H     39.08000000    16.47000000    -2.10000000
   H     37.59000000    17.26000000    -1.50000000
   N     35.11000000    15.51000000    -2.96000000
   C     33.69000000    15.63000000    -3.18000000
   C     33.02000000    16.74000000    -2.38000000
   O     31.83000000    16.95000000    -2.61000000
   C     33.05000000    14.27000000    -2.90000000
   C     33.55000000    13.30000000    -3.97000000
   C     33.04000000    13.53000000    -5.39000000
   C     33.46000000    12.38000000    -6.29000000
   N     32.87000000    12.40000000    -7.64000000
   H     35.62000000    15.61000000    -3.83000000
   H     33.57000000    15.91000000    -4.22000000
   H     31.96000000    14.35000000    -2.95000000
   H     33.38000000    13.97000000    -1.91000000
   H     33.27000000    12.27000000    -3.72000000
   H     34.64000000    13.33000000    -3.97000000
   H     33.54000000    14.41000000    -5.79000000
   H     31.95000000    13.57000000    -5.33000000
   H     33.36000000    11.43000000    -5.75000000
   H     34.53000000    12.56000000    -6.39000000
   H     33.35000000    11.70000000    -8.19000000
   H     31.88000000    12.22000000    -7.70000000
   H     33.07000000    13.28000000    -8.08000000
   N     33.70000000    17.57000000    -1.58000000
   C     33.27000000    18.87000000    -1.11000000
   C     34.41000000    19.88000000    -1.04000000
   O     35.59000000    19.55000000    -0.94000000
   C     32.53000000    18.79000000     0.23000000
   C     31.81000000    20.07000000     0.63000000
   O     31.38000000    20.87000000    -0.22000000
   O     31.59000000    20.22000000     1.85000000
   H     34.61000000    17.24000000    -1.30000000
   H     32.48000000    19.15000000    -1.80000000
   H     33.25000000    18.48000000     0.99000000
   H     31.92000000    17.91000000     0.02000000
   N     34.11000000    21.18000000    -1.09000000
   C     35.09000000    22.25000000    -1.10000000
   C     34.41000000    23.34000000    -0.27000000
   O     33.21000000    23.57000000    -0.33000000
   H     33.15000000    21.50000000    -1.04000000
   H     35.19000000    22.66000000    -2.11000000
   H     36.02000000    21.94000000    -0.63000000
   N     35.18000000    23.86000000     0.69000000
   C     34.65000000    24.79000000     1.66000000
   C     35.40000000    26.11000000     1.77000000
   O     35.09000000    26.85000000     2.70000000
   C     34.50000000    24.04000000     2.98000000
   C     33.37000000    23.02000000     2.93000000
   N     33.71000000    21.73000000     3.02000000
   O     32.17000000    23.26000000     2.80000000
   H     36.17000000    23.66000000     0.70000000
   H     33.66000000    25.11000000     1.34000000
   H     34.09000000    24.71000000     3.74000000
   H     35.47000000    23.64000000     3.25000000
   H     34.71000000    21.57000000     2.99000000
   H     32.98000000    21.05000000     2.87000000
   N     36.43000000    26.33000000     0.95000000
   C     37.40000000    27.38000000     1.20000000
   C     38.14000000    27.22000000     2.52000000
   O     38.53000000    26.09000000     2.80000000
   H     36.52000000    25.75000000     0.13000000
   H     36.90000000    28.34000000     1.21000000
   H     38.09000000    27.40000000     0.35000000
   N     38.19000000    28.23000000     3.40000000
   C     38.68000000    28.23000000     4.76000000
   C     37.94000000    27.43000000     5.82000000
   O     37.84000000    27.90000000     6.95000000
   C     40.14000000    27.79000000     4.71000000
   C     41.01000000    28.17000000     5.88000000
   C     41.07000000    29.52000000     6.25000000
   C     41.71000000    27.16000000     6.55000000
   C     41.78000000    29.89000000     7.41000000
   C     42.54000000    27.57000000     7.61000000
   C     42.45000000    28.88000000     8.12000000
   O     43.41000000    29.31000000     8.99000000
   H     37.85000000    29.14000000     3.13000000
   H     38.57000000    29.28000000     5.05000000
   H     40.53000000    27.99000000     3.71000000
   H     40.06000000    26.70000000     4.66000000
   H     40.61000000    30.32000000     5.69000000
   H     41.72000000    26.16000000     6.17000000
   H     41.96000000    30.91000000     7.70000000
   H     43.20000000    26.84000000     8.04000000
   H     43.85000000    28.61000000     9.47000000
   N     37.28000000    26.34000000     5.42000000
   C     36.61000000    25.34000000     6.23000000
   C     35.29000000    25.85000000     6.81000000
   O     34.27000000    25.29000000     6.41000000
   C     37.52000000    24.61000000     7.21000000
   C     38.65000000    23.95000000     6.42000000
   C     36.81000000    23.40000000     7.80000000
   C     39.85000000    23.42000000     7.20000000
   H     37.41000000    26.15000000     4.44000000
   H     36.31000000    24.64000000     5.46000000
   H     37.91000000    25.32000000     7.94000000
   H     39.01000000    24.66000000     5.67000000
   H     38.31000000    23.13000000     5.80000000
   H     35.96000000    23.75000000     8.38000000
   H     36.28000000    22.76000000     7.08000000
   H     37.42000000    22.84000000     8.51000000
   H     40.12000000    24.15000000     7.96000000
   H     39.65000000    22.53000000     7.81000000
   H     40.68000000    23.33000000     6.51000000
   N     35.29000000    26.80000000     7.75000000
   C     34.18000000    27.41000000     8.45000000
   C     33.50000000    26.39000000     9.36000000
   O     32.30000000    26.53000000     9.54000000
   C     34.65000000    28.64000000     9.23000000
   O     35.22000000    29.49000000     8.27000000
   H     36.11000000    27.39000000     7.77000000
   H     33.46000000    27.73000000     7.70000000
   H     35.45000000    28.39000000     9.92000000
   H     33.81000000    29.12000000     9.74000000
   H     34.52000000    29.76000000     7.67000000
   N     34.23000000    25.35000000     9.78000000
   C     33.70000000    24.12000000    10.32000000
   C     32.37000000    23.65000000     9.74000000
   O     31.35000000    23.49000000    10.39000000
   C     33.90000000    24.17000000    11.84000000
   H     35.23000000    25.43000000     9.77000000
   H     34.35000000    23.31000000     9.99000000
   H     34.95000000    24.35000000    12.06000000
   H     33.29000000    24.97000000    12.26000000
   H     33.73000000    23.21000000    12.32000000
   N     32.44000000    23.45000000     8.42000000
   C     31.27000000    23.22000000     7.59000000
   C     30.77000000    21.82000000     7.91000000
   O     31.53000000    20.86000000     7.99000000
   C     31.64000000    23.34000000     6.11000000
   H     33.32000000    23.64000000     7.96000000
   H     30.47000000    23.93000000     7.83000000
   H     31.83000000    24.39000000     5.89000000
   H     32.55000000    22.83000000     5.80000000
   H     30.81000000    22.96000000     5.52000000
   N     29.44000000    21.71000000     7.90000000
   C     28.70000000    20.48000000     7.75000000
   C     29.09000000    19.41000000     8.76000000
   O     29.61000000    18.36000000     8.40000000
   C     28.68000000    19.94000000     6.32000000
   C     28.02000000    20.99000000     5.43000000
   C     27.88000000    20.40000000     4.04000000
   O     28.68000000    20.87000000     3.20000000
   O     27.00000000    19.54000000     3.79000000
   H     28.99000000    22.61000000     7.79000000
   H     27.67000000    20.66000000     8.06000000
   H     28.10000000    19.02000000     6.32000000
   H     29.71000000    19.76000000     5.99000000
   H     28.52000000    21.95000000     5.48000000
   H     26.98000000    21.27000000     5.64000000
   N     28.86000000    19.53000000    10.07000000
   C     29.60000000    18.76000000    11.05000000
   H     30.51000000    19.29600000    11.32000000
   H     28.98600000    18.61600000    11.93900000
   H     29.86200000    17.79000000    10.62800000
   H     28.34000000    20.35000000    10.36000000
  Ca     29.94000000    22.38000000     1.46000000
   O     29.48000000    23.98000000     3.46000000
   H     30.03000000    24.74000000     3.64000000
   H     28.65000000    24.18000000     3.90000000

Ca 1.70



