%chk=Ng-293_loop3_57.0.chk
%nprocshared=48
%mem=10GB
%nosave
#b3lyp/svp scf=(tight,noincore) Test 
#IOP(5/87=12) Density=Current Pop=(MK,readradii) iop(6/33=2) iop(6/42=6)

Ng-293_loop3_57.0 

   0   1
   C     65.52000000    28.44000000    19.54000000
   C     66.45000000    29.45000000    18.89000000
   O     66.14000000    30.63000000    18.70000000
   H     64.57300000    28.41900000    19.00000000
   H     65.97800000    27.45100000    19.50900000
   H     65.34000000    28.72500000    20.57700000
   N     67.67000000    29.06000000    18.51000000
   C     68.64000000    29.84000000    17.76000000
   C     68.29000000    30.36000000    16.37000000
   O     68.92000000    31.28000000    15.85000000
   C     69.13000000    30.93000000    18.71000000
   C     70.58000000    31.25000000    18.38000000
   O     70.97000000    32.44000000    18.42000000
   O     71.40000000    30.33000000    18.20000000
   H     67.88000000    28.08000000    18.62000000
   H     69.50000000    29.18000000    17.64000000
   H     69.03000000    30.62000000    19.76000000
   H     68.55000000    31.84000000    18.63000000
   N     67.26000000    29.82000000    15.71000000
   C     66.68000000    30.32000000    14.48000000
   C     65.90000000    31.63000000    14.63000000
   O     65.56000000    32.22000000    13.61000000
   C     65.93000000    29.20000000    13.77000000
   C     66.83000000    28.05000000    13.30000000
   C     66.00000000    27.07000000    12.48000000
   C     66.67000000    25.71000000    12.33000000
   N     65.87000000    24.77000000    11.54000000
   H     66.80000000    29.07000000    16.20000000
   H     67.45000000    30.58000000    13.75000000
   H     65.41000000    29.58000000    12.89000000
   H     65.25000000    28.82000000    14.53000000
   H     67.25000000    27.62000000    14.21000000
   H     67.59000000    28.50000000    12.65000000
   H     65.81000000    27.39000000    11.45000000
   H     65.00000000    26.85000000    12.85000000
   H     66.96000000    25.29000000    13.29000000
   H     67.57000000    25.95000000    11.76000000
   H     65.79000000    24.96000000    10.55000000
   H     66.25000000    23.87000000    11.80000000
   H     64.90000000    24.70000000    11.81000000
   N     65.50000000    32.09000000    15.82000000
   C     65.16000000    33.47000000    16.11000000
   C     66.36000000    34.26000000    16.62000000
   O     67.07000000    33.79000000    17.51000000
   C     63.96000000    33.54000000    17.05000000
   C     63.35000000    34.94000000    17.13000000
   O     62.49000000    35.17000000    18.01000000
   O     63.52000000    35.72000000    16.17000000
   H     65.61000000    31.47000000    16.61000000
   H     64.90000000    34.01000000    15.21000000
   H     64.22000000    33.24000000    18.07000000
   H     63.22000000    32.90000000    16.58000000
   N     66.48000000    35.52000000    16.21000000
   C     67.15000000    36.57000000    16.96000000
   C     66.25000000    37.68000000    17.48000000
   O     65.23000000    38.09000000    16.91000000
   H     66.04000000    35.86000000    15.37000000
   H     67.94000000    36.96000000    16.33000000
   H     67.77000000    36.25000000    17.80000000
   N     66.69000000    38.16000000    18.64000000
   C     65.95000000    39.16000000    19.39000000
   C     66.78000000    40.35000000    19.87000000
   O     66.18000000    41.39000000    20.12000000
   C     65.30000000    38.49000000    20.59000000
   C     64.31000000    37.36000000    20.32000000
   N     63.29000000    37.59000000    19.48000000
   O     64.49000000    36.26000000    20.83000000
   H     67.50000000    37.75000000    19.08000000
   H     65.18000000    39.65000000    18.80000000
   H     64.81000000    39.37000000    21.03000000
   H     66.15000000    38.10000000    21.15000000
   H     63.19000000    38.46000000    18.97000000
   H     62.74000000    36.81000000    19.17000000
   N     68.11000000    40.32000000    19.94000000
   C     69.01000000    41.34000000    20.44000000
   C     68.72000000    41.68000000    21.89000000
   O     68.44000000    40.88000000    22.78000000
   H     68.58000000    39.44000000    19.79000000
   H     68.95000000    42.15000000    19.72000000
   H     70.01000000    40.89000000    20.48000000
   N     68.77000000    42.97000000    22.24000000
   C     68.15000000    43.54000000    23.42000000
   C     66.75000000    43.11000000    23.83000000
   O     66.31000000    43.40000000    24.94000000
   C     69.12000000    43.44000000    24.59000000
   C     70.47000000    44.00000000    24.23000000
   C     71.49000000    43.08000000    23.99000000
   C     70.66000000    45.37000000    24.02000000
   C     72.74000000    43.55000000    23.54000000
   C     71.91000000    45.82000000    23.57000000
   C     72.99000000    44.93000000    23.42000000
   O     74.19000000    45.42000000    23.01000000
   H     69.04000000    43.67000000    21.55000000
   H     68.00000000    44.61000000    23.29000000
   H     69.28000000    42.40000000    24.89000000
   H     68.79000000    43.96000000    25.49000000
   H     71.33000000    42.02000000    24.14000000
   H     69.90000000    46.10000000    24.30000000
   H     73.54000000    42.88000000    23.25000000
   H     72.02000000    46.89000000    23.51000000
   H     74.13000000    46.37000000    22.90000000
   N     66.01000000    42.47000000    22.92000000
   C     64.62000000    42.07000000    23.01000000
   C     63.74000000    43.31000000    23.01000000
   O     62.99000000    43.46000000    22.06000000
   C     64.35000000    41.05000000    24.11000000
   C     65.50000000    40.09000000    24.35000000
   C     63.08000000    40.34000000    23.65000000
   C     65.36000000    38.88000000    25.26000000
   H     66.55000000    42.29000000    22.08000000
   H     64.41000000    41.71000000    22.00000000
   H     64.20000000    41.56000000    25.07000000
   H     66.39000000    40.57000000    24.76000000
   H     65.68000000    39.67000000    23.35000000
   H     63.32000000    39.53000000    22.97000000
   H     62.53000000    40.00000000    24.53000000
   H     62.40000000    41.11000000    23.27000000
   H     66.35000000    38.44000000    25.40000000
   H     65.03000000    39.18000000    26.25000000
   H     64.60000000    38.19000000    24.89000000
   N     63.78000000    44.09000000    24.09000000
   C     63.16000000    45.39000000    24.28000000
   C     61.64000000    45.24000000    24.24000000
   O     60.94000000    46.00000000    23.58000000
   C     63.49000000    46.10000000    25.60000000
   O     64.85000000    46.44000000    25.52000000
   H     64.57000000    43.82000000    24.66000000
   H     63.37000000    46.05000000    23.45000000
   H     63.33000000    45.37000000    26.39000000
   H     62.94000000    47.03000000    25.71000000
   H     65.22000000    46.29000000    26.40000000
   N     61.10000000    44.26000000    24.97000000
   C     59.68000000    44.05000000    25.14000000
   C     58.84000000    44.18000000    23.87000000
   O     57.72000000    44.68000000    23.96000000
   C     59.20000000    44.94000000    26.28000000
   H     61.72000000    43.65000000    25.49000000
   H     59.56000000    42.99000000    25.40000000
   H     59.40000000    45.98000000    26.04000000
   H     58.14000000    44.77000000    26.45000000
   H     59.78000000    44.66000000    27.16000000
   N     59.26000000    43.62000000    22.74000000
   C     58.53000000    43.72000000    21.49000000
   C     58.71000000    42.51000000    20.59000000
   O     59.58000000    41.69000000    20.90000000
   C     59.13000000    44.90000000    20.73000000
   H     60.18000000    43.22000000    22.80000000
   H     57.48000000    43.96000000    21.67000000
   H     59.06000000    45.74000000    21.42000000
   H     60.18000000    44.73000000    20.47000000
   H     58.53000000    45.05000000    19.83000000
   N     57.93000000    42.39000000    19.51000000
   C     57.81000000    41.16000000    18.76000000
   C     57.47000000    39.91000000    19.57000000
   O     57.46000000    38.85000000    18.94000000
   C     58.94000000    40.91000000    17.76000000
   C     58.61000000    40.13000000    16.50000000
   C     59.63000000    40.48000000    15.42000000
   O     60.66000000    39.77000000    15.34000000
   O     59.35000000    41.30000000    14.52000000
   H     57.24000000    43.09000000    19.29000000
   H     56.94000000    41.33000000    18.14000000
   H     59.86000000    40.50000000    18.18000000
   H     59.16000000    41.93000000    17.44000000
   H     57.64000000    40.46000000    16.14000000
   H     58.60000000    39.09000000    16.83000000
   N     57.01000000    39.95000000    20.82000000
   C     56.86000000    38.75000000    21.63000000
   H     55.83600000    38.38400000    21.55000000
   H     57.54800000    37.98300000    21.27500000
   H     57.08200000    38.98400000    22.67100000
   H     56.93000000    40.79000000    21.37000000
  Ca     62.72000000    38.07000000    15.69000000
   O     64.29000000    37.02000000    13.92000000
   H     64.23000000    36.20000000    13.42000000
   H     65.04000000    37.48000000    13.54000000

Ca 1.70



