%chk=Ng-293_loop3_60.0.chk
%nprocshared=48
%mem=10GB
%nosave
#b3lyp/svp scf=(tight,noincore) Test 
#IOP(5/87=12) Density=Current Pop=(MK,readradii) iop(6/33=2) iop(6/42=6)

Ng-293_loop3_60.0 

   0   1
   C     41.76000000    75.96000000    67.41000000
   C     42.27000000    75.81000000    65.99000000
   O     43.21000000    76.48000000    65.59000000
   H     40.73400000    75.59600000    67.46700000
   H     42.38900000    75.38000000    68.08600000
   H     41.78800000    77.01100000    67.69800000
   N     41.65000000    75.06000000    65.07000000
   C     41.95000000    75.12000000    63.66000000
   C     41.53000000    73.82000000    62.97000000
   O     40.68000000    73.09000000    63.46000000
   C     41.13000000    76.26000000    63.08000000
   C     41.62000000    76.71000000    61.71000000
   O     42.71000000    76.21000000    61.35000000
   O     41.02000000    77.55000000    61.02000000
   H     41.05000000    74.33000000    65.44000000
   H     43.01000000    75.32000000    63.50000000
   H     41.35000000    77.13000000    63.70000000
   H     40.05000000    76.13000000    63.15000000
   N     42.13000000    73.51000000    61.82000000
   C     41.95000000    72.43000000    60.87000000
   C     40.67000000    72.43000000    60.05000000
   O     39.96000000    73.43000000    60.07000000
   C     42.41000000    71.08000000    61.41000000
   C     43.78000000    71.08000000    62.08000000
   C     44.81000000    71.69000000    61.13000000
   C     46.20000000    71.79000000    61.75000000
   N     47.11000000    72.47000000    60.81000000
   H     42.76000000    74.24000000    61.52000000
   H     42.65000000    72.66000000    60.07000000
   H     42.39000000    70.31000000    60.64000000
   H     41.69000000    70.75000000    62.17000000
   H     44.16000000    70.12000000    62.41000000
   H     43.73000000    71.61000000    63.04000000
   H     44.52000000    72.71000000    60.88000000
   H     44.82000000    71.11000000    60.21000000
   H     46.62000000    70.80000000    61.92000000
   H     46.10000000    72.33000000    62.69000000
   H     48.09000000    72.27000000    60.96000000
   H     46.77000000    72.24000000    59.89000000
   H     46.98000000    73.47000000    60.70000000
   N     40.47000000    71.41000000    59.21000000
   C     39.33000000    71.30000000    58.33000000
   C     38.07000000    70.76000000    59.00000000
   O     38.18000000    69.79000000    59.74000000
   C     39.54000000    70.45000000    57.08000000
   C     40.03000000    69.02000000    57.30000000
   O     39.64000000    68.10000000    56.55000000
   O     40.93000000    68.77000000    58.13000000
   H     40.94000000    70.54000000    59.39000000
   H     39.06000000    72.31000000    58.01000000
   H     40.25000000    70.98000000    56.45000000
   H     38.59000000    70.50000000    56.56000000
   N     36.95000000    71.43000000    58.73000000
   C     35.69000000    71.16000000    59.38000000
   C     34.89000000    70.18000000    58.53000000
   O     34.50000000    70.43000000    57.39000000
   H     36.97000000    72.23000000    58.11000000
   H     35.10000000    72.06000000    59.46000000
   H     35.84000000    70.66000000    60.34000000
   N     34.56000000    68.99000000    59.03000000
   C     33.95000000    67.81000000    58.45000000
   C     32.64000000    67.34000000    59.08000000
   O     32.19000000    66.20000000    59.05000000
   C     34.99000000    66.70000000    58.38000000
   C     36.14000000    67.08000000    57.47000000
   N     37.40000000    66.95000000    57.91000000
   O     35.92000000    67.52000000    56.34000000
   H     34.99000000    68.76000000    59.91000000
   H     33.68000000    68.03000000    57.42000000
   H     34.59000000    65.83000000    57.85000000
   H     35.20000000    66.38000000    59.40000000
   H     37.56000000    66.59000000    58.83000000
   H     38.10000000    67.18000000    57.22000000
   N     31.81000000    68.29000000    59.51000000
   C     30.44000000    68.18000000    59.96000000
   C     30.21000000    67.26000000    61.15000000
   O     30.74000000    67.42000000    62.25000000
   H     32.08000000    69.25000000    59.35000000
   H     29.86000000    67.90000000    59.08000000
   H     30.06000000    69.17000000    60.24000000
   N     29.41000000    66.20000000    61.02000000
   C     29.32000000    65.02000000    61.85000000
   C     30.63000000    64.37000000    62.29000000
   O     30.59000000    63.74000000    63.34000000
   C     28.29000000    65.29000000    62.95000000
   C     27.38000000    64.23000000    63.49000000
   C     27.11000000    64.05000000    64.85000000
   C     26.68000000    63.45000000    62.56000000
   C     26.08000000    63.21000000    65.30000000
   C     25.72000000    62.52000000    62.97000000
   C     25.43000000    62.41000000    64.34000000
   O     24.49000000    61.50000000    64.74000000
   H     28.92000000    66.08000000    60.14000000
   H     28.93000000    64.21000000    61.23000000
   H     27.68000000    66.14000000    62.65000000
   H     28.79000000    65.64000000    63.85000000
   H     27.59000000    64.64000000    65.63000000
   H     26.77000000    63.55000000    61.48000000
   H     26.01000000    62.99000000    66.35000000
   H     25.24000000    61.86000000    62.26000000
   H     24.07000000    61.06000000    64.00000000
   N     31.78000000    64.62000000    61.66000000
   C     33.07000000    64.10000000    62.05000000
   C     33.19000000    62.60000000    61.85000000
   O     34.20000000    62.19000000    61.28000000
   C     33.55000000    64.56000000    63.43000000
   C     33.24000000    66.01000000    63.79000000
   C     35.02000000    64.21000000    63.62000000
   C     33.87000000    67.10000000    62.93000000
   H     31.76000000    65.23000000    60.85000000
   H     33.79000000    64.45000000    61.31000000
   H     32.99000000    63.96000000    64.15000000
   H     33.65000000    66.19000000    64.78000000
   H     32.15000000    66.08000000    63.87000000
   H     35.18000000    63.14000000    63.68000000
   H     35.54000000    64.55000000    62.73000000
   H     35.36000000    64.69000000    64.54000000
   H     33.65000000    66.94000000    61.88000000
   H     33.23000000    67.97000000    63.11000000
   H     34.93000000    67.32000000    63.08000000
   N     32.37000000    61.74000000    62.45000000
   C     32.63000000    60.31000000    62.48000000
   C     33.92000000    59.83000000    63.14000000
   O     34.54000000    58.86000000    62.74000000
   C     31.42000000    59.59000000    63.07000000
   O     31.40000000    59.91000000    64.45000000
   H     31.60000000    62.09000000    63.00000000
   H     32.64000000    60.00000000    61.44000000
   H     31.38000000    58.55000000    62.75000000
   H     30.51000000    59.99000000    62.62000000
   H     30.49000000    60.02000000    64.73000000
   N     34.27000000    60.51000000    64.24000000
   C     35.46000000    60.24000000    65.02000000
   C     36.83000000    60.45000000    64.38000000
   O     37.79000000    59.90000000    64.92000000
   C     35.37000000    58.97000000    65.86000000
   H     33.55000000    61.13000000    64.57000000
   H     35.54000000    61.07000000    65.72000000
   H     36.17000000    58.91000000    66.60000000
   H     34.48000000    58.88000000    66.49000000
   H     35.24000000    58.12000000    65.19000000
   N     36.98000000    61.25000000    63.32000000
   C     38.14000000    61.49000000    62.50000000
   C     39.10000000    62.47000000    63.16000000
   O     38.75000000    63.39000000    63.89000000
   C     37.73000000    61.98000000    61.12000000
   H     36.09000000    61.64000000    63.04000000
   H     38.70000000    60.56000000    62.34000000
   H     36.98000000    62.78000000    61.17000000
   H     38.62000000    62.16000000    60.52000000
   H     37.22000000    61.13000000    60.67000000
   N     40.38000000    62.22000000    62.89000000
   C     41.49000000    63.10000000    63.20000000
   C     41.65000000    63.61000000    64.62000000
   O     42.36000000    64.59000000    64.83000000
   C     41.47000000    64.21000000    62.15000000
   C     41.55000000    63.67000000    60.72000000
   C     41.53000000    64.70000000    59.60000000
   O     42.26000000    64.50000000    58.61000000
   O     40.68000000    65.61000000    59.56000000
   H     40.57000000    61.37000000    62.38000000
   H     42.41000000    62.54000000    63.02000000
   H     42.38000000    64.81000000    62.25000000
   H     40.59000000    64.82000000    62.31000000
   H     40.79000000    62.92000000    60.48000000
   H     42.45000000    63.06000000    60.60000000
   N     40.97000000    63.00000000    65.59000000
   C     40.96000000    63.41000000    66.98000000
   H     40.32400000    64.28800000    67.09500000
   H     40.57300000    62.59900000    67.59600000
   H     41.97500000    63.65300000    67.29500000
   H     40.38000000    62.24000000    65.28000000
  Ca     41.67000000    66.49000000    56.88000000
   O     43.77000000    67.51000000    57.99000000
   H     44.25000000    67.71000000    58.80000000
   H     44.19000000    68.04000000    57.32000000

Ca 1.70



