%chk=Ng-293_loop3_14.0.chk
%nprocshared=48
%mem=10GB
%nosave
#b3lyp/svp scf=(tight,noincore) Test 
#IOP(5/87=12) Density=Current Pop=(MK,readradii) iop(6/33=2) iop(6/42=6)

Ng-293_loop3_14.0 

   0   1
   C     38.94000000    78.58000000    68.21000000
   C     39.51000000    78.47000000    66.80000000
   O     40.59000000    78.98000000    66.52000000
   H     37.91900000    78.19900000    68.21900000
   H     39.55200000    77.99500000    68.89700000
   H     38.94000000    79.62400000    68.52200000
   N     38.77000000    77.81000000    65.90000000
   C     39.11000000    77.72000000    64.50000000
   C     38.65000000    76.37000000    63.96000000
   O     38.03000000    75.61000000    64.70000000
   C     38.42000000    78.85000000    63.75000000
   C     39.02000000    78.96000000    62.36000000
   O     40.22000000    78.69000000    62.15000000
   O     38.17000000    79.30000000    61.50000000
   H     37.93000000    77.34000000    66.19000000
   H     40.18000000    77.79000000    64.30000000
   H     38.77000000    79.77000000    64.22000000
   H     37.34000000    78.74000000    63.79000000
   N     39.18000000    75.92000000    62.82000000
   C     38.85000000    74.73000000    62.07000000
   C     37.38000000    74.49000000    61.74000000
   O     36.45000000    74.96000000    62.38000000
   C     39.58000000    73.55000000    62.72000000
   C     41.08000000    73.46000000    62.98000000
   C     41.96000000    73.36000000    61.73000000
   C     43.46000000    73.43000000    62.01000000
   N     43.87000000    74.80000000    62.38000000
   H     39.74000000    76.55000000    62.27000000
   H     39.41000000    74.79000000    61.14000000
   H     39.30000000    72.74000000    62.06000000
   H     39.12000000    73.32000000    63.69000000
   H     41.34000000    72.56000000    63.53000000
   H     41.24000000    74.30000000    63.65000000
   H     41.67000000    74.18000000    61.07000000
   H     41.84000000    72.36000000    61.32000000
   H     43.98000000    73.09000000    61.12000000
   H     43.76000000    72.73000000    62.78000000
   H     43.32000000    75.42000000    61.79000000
   H     43.70000000    75.07000000    63.33000000
   H     44.82000000    75.05000000    62.15000000
   N     37.23000000    73.67000000    60.70000000
   C     35.97000000    73.39000000    60.03000000
   C     35.12000000    72.37000000    60.78000000
   O     35.59000000    71.40000000    61.36000000
   C     36.23000000    73.01000000    58.58000000
   C     36.93000000    71.67000000    58.38000000
   O     37.72000000    71.19000000    59.22000000
   O     36.82000000    71.00000000    57.33000000
   H     38.06000000    73.16000000    60.44000000
   H     35.39000000    74.32000000    60.05000000
   H     36.72000000    73.83000000    58.05000000
   H     35.27000000    72.91000000    58.07000000
   N     33.87000000    72.74000000    61.05000000
   C     32.87000000    71.89000000    61.66000000
   C     31.96000000    71.17000000    60.67000000
   O     30.83000000    71.58000000    60.42000000
   H     33.56000000    73.64000000    60.69000000
   H     32.18000000    72.56000000    62.17000000
   H     33.24000000    71.11000000    62.32000000
   N     32.33000000    69.99000000    60.18000000
   C     31.63000000    69.16000000    59.22000000
   C     30.53000000    68.42000000    59.96000000
   O     30.74000000    67.29000000    60.41000000
   C     32.63000000    68.29000000    58.47000000
   C     33.62000000    69.13000000    57.68000000
   N     34.86000000    69.23000000    58.17000000
   O     33.33000000    69.83000000    56.71000000
   H     33.15000000    69.65000000    60.67000000
   H     31.16000000    69.83000000    58.50000000
   H     32.03000000    67.69000000    57.78000000
   H     33.15000000    67.60000000    59.14000000
   H     35.16000000    68.54000000    58.84000000
   H     35.52000000    69.94000000    57.84000000
   N     29.33000000    68.98000000    60.12000000
   C     28.17000000    68.35000000    60.73000000
   C     28.34000000    67.83000000    62.15000000
   O     28.62000000    68.60000000    63.07000000
   H     29.18000000    69.91000000    59.75000000
   H     27.87000000    67.48000000    60.14000000
   H     27.40000000    69.13000000    60.77000000
   N     28.11000000    66.52000000    62.29000000
   C     28.10000000    65.79000000    63.54000000
   C     29.41000000    65.64000000    64.29000000
   O     29.49000000    64.81000000    65.19000000
   C     26.98000000    66.41000000    64.39000000
   C     26.27000000    65.42000000    65.29000000
   C     26.60000000    65.36000000    66.65000000
   C     25.34000000    64.55000000    64.72000000
   C     25.94000000    64.38000000    67.40000000
   C     24.77000000    63.52000000    65.49000000
   C     25.05000000    63.43000000    66.87000000
   O     24.52000000    62.35000000    67.53000000
   H     27.80000000    66.03000000    61.46000000
   H     27.72000000    64.79000000    63.33000000
   H     26.25000000    66.96000000    63.81000000
   H     27.31000000    67.20000000    65.05000000
   H     27.32000000    65.97000000    67.17000000
   H     25.09000000    64.64000000    63.67000000
   H     26.41000000    64.26000000    68.37000000
   H     24.14000000    62.79000000    65.02000000
   H     23.85000000    61.91000000    67.01000000
   N     30.46000000    66.31000000    63.80000000
   C     31.83000000    66.26000000    64.28000000
   C     32.54000000    64.92000000    64.17000000
   O     33.62000000    64.87000000    63.58000000
   C     31.81000000    66.87000000    65.67000000
   C     31.09000000    68.21000000    65.80000000
   C     33.28000000    66.88000000    66.09000000
   C     31.72000000    69.38000000    65.04000000
   H     30.33000000    67.10000000    63.19000000
   H     32.41000000    66.85000000    63.57000000
   H     31.32000000    66.22000000    66.41000000
   H     31.16000000    68.45000000    66.86000000
   H     30.03000000    68.15000000    65.57000000
   H     33.50000000    65.87000000    66.41000000
   H     33.99000000    67.21000000    65.34000000
   H     33.50000000    67.45000000    67.00000000
   H     31.60000000    69.20000000    63.97000000
   H     31.24000000    70.33000000    65.28000000
   H     32.79000000    69.56000000    65.12000000
   N     31.97000000    63.79000000    64.59000000
   C     32.50000000    62.45000000    64.38000000
   C     33.95000000    62.17000000    64.76000000
   O     34.66000000    61.52000000    64.00000000
   C     31.60000000    61.46000000    65.11000000
   O     31.48000000    61.81000000    66.47000000
   H     31.17000000    63.80000000    65.20000000
   H     32.44000000    62.10000000    63.35000000
   H     31.92000000    60.43000000    64.94000000
   H     30.61000000    61.46000000    64.65000000
   H     30.53000000    61.80000000    66.65000000
   N     34.47000000    62.70000000    65.87000000
   C     35.70000000    62.25000000    66.49000000
   C     36.96000000    62.69000000    65.75000000
   O     38.05000000    62.19000000    66.02000000
   C     35.63000000    60.77000000    66.83000000
   H     33.89000000    63.36000000    66.36000000
   H     35.87000000    62.75000000    67.45000000
   H     36.56000000    60.48000000    67.32000000
   H     34.85000000    60.57000000    67.57000000
   H     35.48000000    60.21000000    65.91000000
   N     36.92000000    63.69000000    64.86000000
   C     37.91000000    63.87000000    63.82000000
   C     38.64000000    65.17000000    64.13000000
   O     38.24000000    66.13000000    64.78000000
   C     37.21000000    63.82000000    62.47000000
   H     36.08000000    64.25000000    64.82000000
   H     38.57000000    63.01000000    63.85000000
   H     36.49000000    64.64000000    62.35000000
   H     37.82000000    63.90000000    61.57000000
   H     36.66000000    62.88000000    62.37000000
   N     39.84000000    65.17000000    63.53000000
   C     40.92000000    66.13000000    63.63000000
   C     41.40000000    66.59000000    64.99000000
   O     42.20000000    67.53000000    65.00000000
   C     40.66000000    67.30000000    62.68000000
   C     40.19000000    66.74000000    61.34000000
   C     40.17000000    67.74000000    60.20000000
   O     40.08000000    68.99000000    60.32000000
   O     40.25000000    67.30000000    59.03000000
   H     40.01000000    64.41000000    62.89000000
   H     41.78000000    65.56000000    63.29000000
   H     41.64000000    67.77000000    62.56000000
   H     39.91000000    68.03000000    63.00000000
   H     39.21000000    66.28000000    61.41000000
   H     40.97000000    66.01000000    61.10000000
   N     40.96000000    66.01000000    66.11000000
   C     41.11000000    66.58000000    67.44000000
   H     41.74100000    67.46700000    67.38500000
   H     40.13000000    66.85500000    67.83100000
   H     41.57200000    65.84600000    68.10000000
   H     40.10000000    65.50000000    65.97000000
  Ca     39.33000000    69.79000000    57.72000000
   O     37.44000000    67.95000000    57.88000000
   H     37.26000000    67.68000000    58.78000000
   H     37.12000000    67.23000000    57.34000000

Ca 1.70



