%chk=Ng-293_loop3_36.0.chk
%nprocshared=48
%mem=10GB
%nosave
#b3lyp/svp scf=(tight,noincore) Test 
#IOP(5/87=12) Density=Current Pop=(MK,readradii) iop(6/33=2) iop(6/42=6)

Ng-293_loop3_36.0 

   0   1
   C     61.06000000    19.01000000     8.95000000
   C     60.74000000    20.12000000     7.97000000
   O     60.26000000    21.19000000     8.36000000
   H     61.92000000    19.29700000     9.55500000
   H     60.20100000    18.83900000     9.59900000
   H     61.29000000    18.09600000     8.40200000
   N     61.04000000    19.95000000     6.68000000
   C     61.23000000    20.94000000     5.64000000
   C     60.03000000    21.58000000     4.95000000
   O     60.26000000    22.42000000     4.09000000
   C     62.21000000    21.99000000     6.14000000
   C     63.39000000    21.55000000     7.00000000
   O     64.32000000    20.97000000     6.41000000
   O     63.37000000    21.82000000     8.22000000
   H     61.19000000    18.99000000     6.40000000
   H     61.78000000    20.39000000     4.88000000
   H     61.57000000    22.72000000     6.65000000
   H     62.65000000    22.44000000     5.25000000
   N     58.79000000    21.22000000     5.28000000
   C     57.64000000    21.86000000     4.67000000
   C     57.39000000    23.31000000     5.05000000
   O     56.83000000    24.03000000     4.23000000
   C     56.41000000    21.00000000     4.94000000
   C     55.27000000    21.41000000     4.01000000
   C     54.02000000    20.56000000     4.18000000
   C     52.81000000    21.12000000     3.44000000
   N     52.33000000    22.37000000     4.05000000
   H     58.60000000    20.46000000     5.92000000
   H     57.79000000    22.03000000     3.61000000
   H     56.19000000    21.18000000     5.99000000
   H     56.66000000    19.97000000     4.67000000
   H     55.58000000    21.32000000     2.96000000
   H     55.05000000    22.47000000     4.13000000
   H     53.69000000    20.43000000     5.22000000
   H     54.19000000    19.58000000     3.73000000
   H     52.00000000    20.39000000     3.41000000
   H     53.11000000    21.30000000     2.41000000
   H     52.26000000    22.24000000     5.05000000
   H     52.98000000    23.11000000     3.82000000
   H     51.44000000    22.72000000     3.71000000
   N     57.88000000    23.79000000     6.19000000
   C     57.65000000    25.03000000     6.91000000
   C     58.82000000    25.26000000     7.86000000
   O     59.72000000    24.43000000     7.98000000
   C     56.33000000    24.89000000     7.67000000
   C     55.91000000    26.24000000     8.21000000
   O     56.18000000    27.30000000     7.60000000
   O     55.17000000    26.30000000     9.22000000
   H     58.49000000    23.17000000     6.69000000
   H     57.61000000    25.90000000     6.26000000
   H     56.41000000    24.09000000     8.41000000
   H     55.59000000    24.56000000     6.94000000
   N     58.83000000    26.40000000     8.55000000
   C     59.53000000    26.72000000     9.78000000
   C     58.98000000    27.92000000    10.53000000
   O     57.95000000    28.45000000    10.12000000
   H     58.18000000    27.10000000     8.22000000
   H     60.61000000    26.82000000     9.64000000
   H     59.54000000    25.86000000    10.45000000
   N     59.69000000    28.37000000    11.57000000
   C     59.35000000    29.55000000    12.33000000
   C     60.49000000    30.56000000    12.30000000
   O     60.43000000    31.52000000    13.07000000
   C     58.96000000    29.06000000    13.72000000
   C     57.71000000    28.20000000    13.86000000
   N     56.74000000    28.64000000    14.67000000
   O     57.48000000    27.19000000    13.20000000
   H     60.51000000    27.81000000    11.79000000
   H     58.51000000    30.06000000    11.86000000
   H     58.78000000    29.91000000    14.38000000
   H     59.83000000    28.53000000    14.10000000
   H     56.85000000    29.57000000    15.07000000
   H     55.86000000    28.15000000    14.74000000
   N     61.50000000    30.48000000    11.43000000
   C     62.60000000    31.43000000    11.38000000
   C     63.41000000    31.43000000    12.67000000
   O     63.59000000    30.34000000    13.21000000
   H     61.61000000    29.70000000    10.81000000
   H     62.21000000    32.42000000    11.15000000
   H     63.22000000    31.08000000    10.55000000
   N     63.84000000    32.59000000    13.15000000
   C     64.38000000    32.97000000    14.44000000
   C     63.49000000    32.85000000    15.66000000
   O     63.81000000    33.39000000    16.71000000
   C     65.69000000    32.21000000    14.66000000
   C     66.60000000    32.11000000    13.46000000
   C     66.65000000    31.02000000    12.57000000
   C     67.16000000    33.31000000    13.03000000
   C     67.19000000    31.08000000    11.28000000
   C     67.66000000    33.42000000    11.73000000
   C     67.78000000    32.29000000    10.89000000
   O     68.47000000    32.38000000     9.72000000
   H     63.45000000    33.39000000    12.67000000
   H     64.57000000    34.04000000    14.36000000
   H     65.36000000    31.20000000    14.91000000
   H     66.26000000    32.57000000    15.51000000
   H     66.16000000    30.11000000    12.90000000
   H     66.99000000    34.21000000    13.61000000
   H     67.19000000    30.29000000    10.54000000
   H     68.19000000    34.30000000    11.40000000
   H     68.92000000    33.22000000     9.62000000
   N     62.39000000    32.11000000    15.46000000
   C     61.35000000    31.65000000    16.36000000
   C     60.58000000    32.83000000    16.94000000
   O     59.42000000    33.02000000    16.61000000
   C     61.93000000    30.71000000    17.41000000
   C     62.80000000    29.56000000    16.91000000
   C     60.84000000    30.16000000    18.33000000
   C     63.71000000    28.79000000    17.86000000
   H     62.23000000    31.86000000    14.50000000
   H     60.65000000    31.01000000    15.82000000
   H     62.55000000    31.26000000    18.11000000
   H     63.40000000    29.94000000    16.09000000
   H     62.11000000    28.82000000    16.51000000
   H     61.23000000    29.38000000    18.98000000
   H     60.53000000    30.91000000    19.06000000
   H     60.07000000    29.69000000    17.72000000
   H     63.06000000    28.25000000    18.55000000
   H     64.29000000    28.07000000    17.28000000
   H     64.44000000    29.44000000    18.33000000
   N     61.21000000    33.59000000    17.85000000
   C     60.65000000    34.81000000    18.38000000
   C     59.49000000    34.51000000    19.32000000
   O     58.67000000    35.38000000    19.57000000
   C     61.69000000    35.67000000    19.08000000
   O     62.66000000    36.18000000    18.19000000
   H     62.16000000    33.40000000    18.12000000
   H     60.22000000    35.35000000    17.53000000
   H     62.16000000    35.07000000    19.86000000
   H     61.17000000    36.49000000    19.58000000
   H     62.26000000    35.95000000    17.35000000
   N     59.28000000    33.28000000    19.79000000
   C     58.07000000    32.76000000    20.41000000
   C     56.79000000    33.09000000    19.66000000
   O     55.77000000    33.41000000    20.27000000
   C     58.02000000    33.23000000    21.86000000
   H     59.96000000    32.56000000    19.57000000
   H     58.10000000    31.68000000    20.53000000
   H     57.07000000    32.84000000    22.23000000
   H     58.82000000    32.75000000    22.42000000
   H     58.05000000    34.32000000    21.87000000
   N     56.83000000    33.07000000    18.33000000
   C     55.68000000    33.42000000    17.52000000
   C     55.29000000    32.27000000    16.60000000
   O     56.09000000    31.44000000    16.19000000
   C     55.84000000    34.80000000    16.89000000
   H     57.73000000    32.91000000    17.89000000
   H     54.85000000    33.53000000    18.22000000
   H     56.60000000    34.79000000    16.11000000
   H     54.86000000    35.07000000    16.48000000
   H     56.08000000    35.48000000    17.70000000
   N     54.04000000    32.24000000    16.15000000
   C     53.39000000    31.27000000    15.29000000
   C     53.29000000    29.88000000    15.89000000
   O     53.28000000    28.87000000    15.18000000
   C     53.71000000    31.41000000    13.81000000
   C     52.83000000    30.78000000    12.73000000
   C     53.30000000    30.81000000    11.28000000
   O     53.51000000    31.90000000    10.70000000
   O     53.29000000    29.74000000    10.65000000
   H     53.45000000    32.94000000    16.59000000
   H     52.33000000    31.54000000    15.37000000
   H     54.71000000    31.03000000    13.58000000
   H     53.76000000    32.48000000    13.61000000
   H     51.88000000    31.30000000    12.65000000
   H     52.60000000    29.74000000    12.94000000
   N     53.21000000    29.87000000    17.22000000
   C     53.31000000    28.65000000    18.01000000
   H     53.98300000    28.81700000    18.85100000
   H     52.32300000    28.37600000    18.38400000
   H     53.70000000    27.84400000    17.38800000
   H     53.36000000    30.75000000    17.67000000
  Ca     55.48000000    29.19000000     9.32000000
   O     55.30000000    27.95000000    11.64000000
   H     54.56000000    27.70000000    12.18000000
   H     56.07000000    27.67000000    12.14000000

Ca 1.70



