%chk=Ng-295_loop3_40.0.chk
%nprocshared=48
%mem=10GB
%nosave
#b3lyp/svp scf=(tight,noincore) Test 
#IOP(5/87=12) Density=Current Pop=(MK,readradii) iop(6/33=2) iop(6/42=6)

Ng-295_loop3_40.0 

   0   1
   C     93.36100000    78.76100000    57.12000000
   C     92.82100000    77.36100000    57.35000000
   O     91.61100000    77.18100000    57.27000000
   H     94.33400000    78.69900000    56.63300000
   H     92.67200000    79.31700000    56.48400000
   H     93.46600000    79.27200000    58.07700000
   N     93.72100000    76.43100000    57.69000000
   C     93.32100000    75.04100000    57.87000000
   C     92.57100000    74.95100000    59.19000000
   O     93.20100000    75.28100000    60.20000000
   C     94.59100000    74.20100000    57.81000000
   C     94.26100000    72.76100000    57.46000000
   O     93.42100000    72.04100000    58.04000000
   O     94.67100000    72.22100000    56.41000000
   H     94.70100000    76.61100000    57.83000000
   H     92.68100000    74.73100000    57.05000000
   H     95.16100000    74.19100000    58.74000000
   H     95.17100000    74.58100000    56.97000000
   N     91.36100000    74.40100000    59.19000000
   C     90.66100000    74.21100000    60.44000000
   C     90.90100000    72.87100000    61.13000000
   O     91.19100000    72.83100000    62.32000000
   C     89.16100000    74.46100000    60.24000000
   C     88.77100000    75.86100000    59.76000000
   C     89.43100000    76.92100000    60.63000000
   C     89.13100000    78.20100000    59.86000000
   N     90.07100000    79.30100000    60.12000000
   H     90.93100000    74.10100000    58.32000000
   H     91.06100000    74.94100000    61.13000000
   H     88.75100000    74.35100000    61.24000000
   H     88.72100000    73.71100000    59.60000000
   H     87.70100000    76.03100000    59.61000000
   H     89.06100000    76.00100000    58.72000000
   H     90.51100000    76.79100000    60.65000000
   H     88.96100000    77.01100000    61.61000000
   H     88.16100000    78.60100000    60.15000000
   H     89.19100000    78.02100000    58.79000000
   H     91.05100000    79.09100000    60.00000000
   H     89.86100000    80.14100000    59.60000000
   H     89.98100000    79.53100000    61.10000000
   N     90.85100000    71.81100000    60.32000000
   C     91.04100000    70.46100000    60.84000000
   C     92.51100000    70.23100000    61.16000000
   O     92.84100000    69.45100000    62.04000000
   C     90.59100000    69.46100000    59.78000000
   C     91.15100000    69.66100000    58.37000000
   O     90.79100000    70.64100000    57.68000000
   O     92.09100000    68.93100000    57.99000000
   H     90.67100000    71.97100000    59.34000000
   H     90.43100000    70.33100000    61.73000000
   H     89.50100000    69.42100000    59.72000000
   H     90.84100000    68.44100000    60.07000000
   N     93.41100000    70.84100000    60.38000000
   C     94.84100000    70.83100000    60.62000000
   C     95.67100000    69.73100000    59.98000000
   O     96.89100000    69.62100000    60.05000000
   H     93.07100000    71.31100000    59.55000000
   H     94.99100000    70.83100000    61.70000000
   H     95.35100000    71.71100000    60.24000000
   N     94.93100000    68.81100000    59.35000000
   C     95.42100000    67.72100000    58.54000000
   C     95.72100000    68.16100000    57.11000000
   O     95.32100000    69.25100000    56.72000000
   C     94.36100000    66.63100000    58.56000000
   C     94.82100000    65.39100000    57.81000000
   N     95.82100000    64.67100000    58.33000000
   O     94.44100000    65.05100000    56.69000000
   H     93.94100000    68.97100000    59.19000000
   H     96.34100000    67.45100000    59.05000000
   H     93.43100000    66.94100000    58.08000000
   H     94.21100000    66.40100000    59.62000000
   H     96.17100000    64.93100000    59.24000000
   H     96.00100000    63.76100000    57.93000000
   N     96.55100000    67.46100000    56.34000000
   C     97.09100000    67.91100000    55.07000000
   C     97.26100000    66.74100000    54.10000000
   O     97.78100000    66.94100000    53.00000000
   H     96.85100000    66.58100000    56.73000000
   H     97.99100000    68.46100000    55.32000000
   H     96.40100000    68.62100000    54.62000000
   N     96.69100000    65.56100000    54.32000000
   C     96.66100000    64.45100000    53.39000000
   C     95.48100000    64.46100000    52.43000000
   O     94.36100000    64.69100000    52.88000000
   C     96.85100000    63.16100000    54.18000000
   C     96.97100000    61.95100000    53.28000000
   C     95.86100000    61.26100000    52.78000000
   C     98.22100000    61.34100000    53.11000000
   C     95.98100000    60.16100000    51.91000000
   C     98.43100000    60.32100000    52.19000000
   C     97.29100000    59.77100000    51.57000000
   O     97.47100000    58.70100000    50.74000000
   H     96.08100000    65.46100000    55.12000000
   H     97.52100000    64.47100000    52.72000000
   H     95.95100000    62.97100000    54.77000000
   H     97.74100000    63.26100000    54.81000000
   H     94.87100000    61.46100000    53.14000000
   H     99.06100000    61.67100000    53.71000000
   H     95.08100000    59.73100000    51.49000000
   H     99.40100000    59.85100000    52.12000000
   H     98.37100000    58.39100000    50.63000000
   N     95.73100000    64.22100000    51.14000000
   C     94.75100000    64.10100000    50.09000000
   C     93.83100000    62.90100000    50.21000000
   O     93.14100000    62.70100000    51.21000000
   C     94.10100000    65.41100000    49.66000000
   C     93.18100000    65.25100000    48.44000000
   C     95.23100000    66.36100000    49.29000000
   C     91.70100000    65.05100000    48.76000000
   H     96.73100000    64.12100000    50.98000000
   H     95.41100000    63.78100000    49.28000000
   H     93.53100000    65.74100000    50.53000000
   H     93.52100000    64.40100000    47.86000000
   H     93.13100000    66.13100000    47.79000000
   H     95.85100000    66.53100000    50.17000000
   H     95.80100000    65.85100000    48.51000000
   H     94.83100000    67.30100000    48.91000000
   H     91.10100000    64.86100000    47.87000000
   H     91.49100000    64.30100000    49.52000000
   H     91.13100000    65.93100000    49.05000000
   N     93.74100000    62.09100000    49.15000000
   C     92.98100000    60.86100000    49.12000000
   C     93.75100000    59.72100000    48.46000000
   O     93.55100000    58.55100000    48.77000000
   C     91.66100000    61.08100000    48.41000000
   O     91.76100000    61.69100000    47.14000000
   H     94.41100000    62.25100000    48.41000000
   H     92.86100000    60.60100000    50.18000000
   H     90.95100000    61.62100000    49.04000000
   H     91.19100000    60.11100000    48.22000000
   H     90.92100000    62.11100000    46.95000000
   N     94.64100000    60.03100000    47.51000000
   C     95.48100000    59.16100000    46.71000000
   C     94.82100000    58.16100000    45.78000000
   O     95.10100000    56.96100000    45.84000000
   C     96.55100000    58.54100000    47.61000000
   H     94.71100000    61.01100000    47.26000000
   H     95.95100000    59.82100000    45.99000000
   H     96.99100000    59.30100000    48.26000000
   H     96.14100000    57.67100000    48.11000000
   H     97.40100000    58.34100000    46.94000000
   N     93.86100000    58.50100000    44.93000000
   C     93.19100000    59.76100000    44.68000000
   C     93.55100000    60.26100000    43.29000000
   O     93.63100000    59.48100000    42.34000000
   C     91.71100000    59.42100000    44.84000000
   H     93.51100000    57.70100000    44.41000000
   H     93.45100000    60.48100000    45.45000000
   H     91.54100000    58.53100000    44.22000000
   H     91.48100000    59.31100000    45.89000000
   H     91.08100000    60.26100000    44.53000000
   N     93.79100000    61.56100000    43.08000000
   C     93.65100000    62.69100000    43.97000000
   C     94.77100000    63.70100000    43.74000000
   O     95.27100000    64.24100000    44.73000000
   C     92.24100000    63.25100000    43.75000000
   C     92.05100000    64.56100000    44.49000000
   C     90.74100000    65.27100000    44.17000000
   O     90.76100000    65.99100000    43.14000000
   O     89.74100000    65.13100000    44.90000000
   H     94.06100000    61.81100000    42.14000000
   H     93.64100000    62.55100000    45.05000000
   H     91.49100000    62.53100000    44.07000000
   H     92.11100000    63.49100000    42.69000000
   H     92.88100000    65.25100000    44.33000000
   H     92.12100000    64.37100000    45.56000000
   N     95.07100000    64.05100000    42.49000000
   C     96.11100000    65.00100000    42.15000000
   H     97.00400000    64.46300000    41.83200000
   H     95.76600000    65.64300000    41.33900000
   H     96.34600000    65.61100000    43.02200000
   H     94.65100000    63.50100000    41.75000000
  Ca     92.87000000    70.44000000    56.01000000
   O     93.82000000    70.01000000    53.67000000
   H     93.83000000    69.15000000    53.25000000
   H     94.32000000    70.58000000    53.07000000

Ca 1.70



