%chk=Ng-293_loop3_4.0.chk
%nprocshared=48
%mem=10GB
%nosave
#b3lyp/svp scf=(tight,noincore) Test 
#IOP(5/87=12) Density=Current Pop=(MK,readradii) iop(6/33=2) iop(6/42=6)

Ng-293_loop3_4.0 

   0   1
   C     35.21000000    12.34000000    99.11700000
   C     34.49000000    12.95000000    97.92700000
   O     34.61000000    12.44000000    96.80700000
   H     36.11500000    12.91100000    99.32500000
   H     34.55700000    12.36500000    99.98900000
   H     35.47600000    11.30700000    98.89100000
   N     33.70000000    13.99000000    98.16700000
   C     32.93000000    14.66000000    97.13700000
   C     31.52000000    14.09000000    97.08700000
   O     30.91000000    13.89000000    98.13700000
   C     32.94000000    16.17000000    97.35700000
   C     32.17000000    17.03000000    96.36700000
   O     31.76000000    18.14000000    96.79700000
   O     31.92000000    16.63000000    95.21700000
   H     33.63000000    14.39000000    99.09700000
   H     33.49000000    14.45000000    96.21700000
   H     33.98000000    16.46000000    97.25700000
   H     32.72000000    16.35000000    98.40700000
   N     30.98000000    13.99000000    95.86700000
   C     29.65000000    13.55000000    95.50700000
   C     28.49000000    14.41000000    95.99700000
   O     27.38000000    13.99000000    95.69700000
   C     29.51000000    12.06000000    95.79700000
   C     30.25000000    11.26000000    94.72700000
   C     30.56000000     9.80000000    95.06700000
   C     30.85000000     9.16000000    93.70700000
   N     31.25000000     7.77000000    93.95700000
   H     31.63000000    14.17000000    95.11700000
   H     29.64000000    13.69000000    94.42700000
   H     28.49000000    11.68000000    95.81700000
   H     29.89000000    11.88000000    96.79700000
   H     31.19000000    11.73000000    94.44700000
   H     29.66000000    11.34000000    93.81700000
   H     29.82000000     9.25000000    95.62700000
   H     31.44000000     9.77000000    95.71700000
   H     31.72000000     9.71000000    93.34700000
   H     30.06000000     9.20000000    92.95700000
   H     30.49000000     7.11000000    94.05700000
   H     31.83000000     7.42000000    93.21700000
   H     31.76000000     7.73000000    94.82700000
   N     28.72000000    15.54000000    96.66700000
   C     27.68000000    16.31000000    97.32700000
   C     28.20000000    17.69000000    97.71700000
   O     29.12000000    17.79000000    98.52700000
   C     27.10000000    15.47000000    98.45700000
   C     25.67000000    15.97000000    98.57700000
   O     25.51000000    17.04000000    99.20700000
   O     24.73000000    15.42000000    97.96700000
   H     29.69000000    15.74000000    96.84700000
   H     26.88000000    16.54000000    96.61700000
   H     27.57000000    15.65000000    99.42700000
   H     27.10000000    14.40000000    98.26700000
   N     27.73000000    18.74000000    97.03700000
   C     28.14000000    20.11000000    97.22700000
   C     27.46000000    20.55000000    98.50700000
   O     26.25000000    20.39000000    98.63700000
   H     27.19000000    18.46000000    96.22700000
   H     27.83000000    20.79000000    96.42700000
   H     29.21000000    20.12000000    97.44700000
   N     28.17000000    21.30000000    99.35700000
   C     27.69000000    21.81000000   100.62700000
   C     28.12000000    23.24000000   100.91700000
   O     27.40000000    23.95000000   101.62700000
   C     28.01000000    20.73000000   101.64700000
   C     27.16000000    19.50000000   101.35700000
   N     27.67000000    18.29000000   101.07700000
   O     25.94000000    19.55000000   101.38700000
   H     29.05000000    21.66000000    99.01700000
   H     26.60000000    21.90000000   100.55700000
   H     27.71000000    21.22000000   102.57700000
   H     29.06000000    20.47000000   101.70700000
   H     28.67000000    18.12000000   101.08700000
   H     27.01000000    17.53000000   101.07700000
   N     29.18000000    23.75000000   100.27700000
   C     29.76000000    25.06000000   100.48700000
   C     30.21000000    25.06000000   101.93700000
   O     30.84000000    24.08000000   102.32700000
   H     29.78000000    23.14000000    99.73700000
   H     29.06000000    25.85000000   100.20700000
   H     30.70000000    25.14000000    99.94700000
   N     29.87000000    26.15000000   102.63700000
   C     30.38000000    26.41000000   103.96700000
   C     30.08000000    25.42000000   105.08700000
   O     30.38000000    25.65000000   106.25700000
   C     31.88000000    26.66000000   103.87700000
   C     32.35000000    27.61000000   104.95700000
   C     31.88000000    28.92000000   105.06700000
   C     33.38000000    27.17000000   105.79700000
   C     32.46000000    29.76000000   106.02700000
   C     33.94000000    28.02000000   106.75700000
   C     33.43000000    29.32000000   106.94700000
   O     34.00000000    30.18000000   107.83700000
   H     29.26000000    26.83000000   102.20700000
   H     29.89000000    27.35000000   104.22700000
   H     32.07000000    27.12000000   102.90700000
   H     32.42000000    25.71000000   103.81700000
   H     31.15000000    29.23000000   104.33700000
   H     33.68000000    26.13000000   105.75700000
   H     32.23000000    30.81000000   106.12700000
   H     34.63000000    27.60000000   107.48700000
   H     34.61000000    29.65000000   108.35700000
   N     29.38000000    24.32000000   104.80700000
   C     28.78000000    23.43000000   105.77700000
   C     27.56000000    24.04000000   106.46700000
   O     26.48000000    23.48000000   106.29700000
   C     29.68000000    22.61000000   106.68700000
   C     30.76000000    21.85000000   105.91700000
   C     28.92000000    21.60000000   107.53700000
   C     32.00000000    22.58000000   105.38700000
   H     29.44000000    23.98000000   103.85700000
   H     28.31000000    22.64000000   105.19700000
   H     30.15000000    23.32000000   107.36700000
   H     30.38000000    21.35000000   105.03700000
   H     31.23000000    21.13000000   106.58700000
   H     29.56000000    21.17000000   108.30700000
   H     28.18000000    22.03000000   108.22700000
   H     28.42000000    20.90000000   106.86700000
   H     32.67000000    21.89000000   104.87700000
   H     31.73000000    23.16000000   104.50700000
   H     32.41000000    23.27000000   106.12700000
   N     27.68000000    25.16000000   107.17700000
   C     26.61000000    25.82000000   107.89700000
   C     26.04000000    25.00000000   109.04700000
   O     24.95000000    25.37000000   109.47700000
   C     27.14000000    27.14000000   108.45700000
   O     27.70000000    27.89000000   107.39700000
   H     28.54000000    25.69000000   107.08700000
   H     25.83000000    25.99000000   107.15700000
   H     27.92000000    27.05000000   109.20700000
   H     26.34000000    27.72000000   108.91700000
   H     27.05000000    27.74000000   106.71700000
   N     26.69000000    23.91000000   109.47700000
   C     26.15000000    22.80000000   110.23700000
   C     24.92000000    22.17000000   109.59700000
   O     24.13000000    21.52000000   110.27700000
   C     26.07000000    23.10000000   111.72700000
   H     27.64000000    23.76000000   109.16700000
   H     26.93000000    22.06000000   110.06700000
   H     25.77000000    22.24000000   112.33700000
   H     27.11000000    23.29000000   111.97700000
   H     25.36000000    23.86000000   112.04700000
   N     24.79000000    22.30000000   108.27700000
   C     23.87000000    21.58000000   107.41700000
   C     24.47000000    20.28000000   106.88700000
   O     25.66000000    20.03000000   106.69700000
   C     23.08000000    22.35000000   106.36700000
   H     25.58000000    22.71000000   107.78700000
   H     23.08000000    21.25000000   108.08700000
   H     22.50000000    21.72000000   105.69700000
   H     22.55000000    23.14000000   106.89700000
   H     23.79000000    22.87000000   105.71700000
   N     23.53000000    19.39000000   106.56700000
   C     23.79000000    18.09000000   105.97700000
   C     24.72000000    17.13000000   106.71700000
   O     25.41000000    16.31000000   106.12700000
   C     24.14000000    18.11000000   104.49700000
   C     22.85000000    18.51000000   103.76700000
   C     23.12000000    18.73000000   102.28700000
   O     23.20000000    17.77000000   101.48700000
   O     23.21000000    19.89000000   101.84700000
   H     22.54000000    19.56000000   106.70700000
   H     22.81000000    17.60000000   106.02700000
   H     24.42000000    17.15000000   104.07700000
   H     24.97000000    18.78000000   104.27700000
   H     22.37000000    19.39000000   104.18700000
   H     22.09000000    17.73000000   103.84700000
   N     24.72000000    17.26000000   108.04700000
   C     25.51000000    16.53000000   109.01700000
   H     26.41500000    17.09300000   109.24500000
   H     24.93000000    16.39200000   109.92900000
   H     25.78100000    15.55700000   108.60700000
   H     24.22000000    18.04000000   108.44700000
  Ca     24.09000000    19.24000000    99.46000000
   O     23.93000000    20.25000000    97.04000000
   H     24.27000000    21.14000000    97.08000000
   H     23.72000000    20.12000000    96.11000000

Ca 1.70



