%chk=Ng-293_loop3_70.0.chk
%nprocshared=48
%mem=10GB
%nosave
#b3lyp/svp scf=(tight,noincore) Test 
#IOP(5/87=12) Density=Current Pop=(MK,readradii) iop(6/33=2) iop(6/42=6)

Ng-293_loop3_70.0 

   0   1
   C     49.30000000    24.31000000     6.36000000
   C     48.43000000    25.56000000     6.40000000
   O     47.53000000    25.66000000     5.57000000
   H     50.24000000    24.50500000     6.87700000
   H     48.77900000    23.48800000     6.85200000
   H     49.50500000    24.04200000     5.32300000
   N     48.70000000    26.50000000     7.31000000
   C     47.88000000    27.68000000     7.48000000
   C     46.43000000    27.28000000     7.71000000
   O     46.22000000    26.45000000     8.60000000
   C     48.52000000    28.38000000     8.68000000
   C     49.92000000    28.91000000     8.42000000
   O     50.28000000    29.35000000     7.30000000
   O     50.74000000    28.82000000     9.36000000
   H     49.51000000    26.25000000     7.86000000
   H     48.00000000    28.35000000     6.63000000
   H     48.55000000    27.74000000     9.56000000
   H     47.92000000    29.27000000     8.86000000
   N     45.52000000    27.86000000     6.93000000
   C     44.09000000    27.93000000     7.17000000
   C     43.69000000    28.32000000     8.58000000
   O     43.12000000    29.40000000     8.72000000
   C     43.34000000    26.65000000     6.79000000
   C     43.62000000    26.34000000     5.32000000
   C     43.17000000    24.91000000     5.06000000
   C     44.09000000    24.19000000     4.07000000
   N     45.51000000    24.05000000     4.39000000
   H     45.89000000    28.51000000     6.26000000
   H     43.67000000    28.61000000     6.43000000
   H     42.27000000    26.83000000     6.92000000
   H     43.59000000    25.79000000     7.40000000
   H     44.65000000    26.53000000     5.01000000
   H     43.07000000    27.02000000     4.67000000
   H     42.22000000    25.08000000     4.57000000
   H     42.91000000    24.31000000     5.94000000
   H     44.05000000    24.70000000     3.11000000
   H     43.61000000    23.21000000     4.01000000
   H     45.73000000    23.38000000     5.12000000
   H     46.06000000    23.72000000     3.60000000
   H     45.89000000    24.96000000     4.61000000
   N     43.80000000    27.49000000     9.63000000
   C     43.56000000    27.86000000    11.01000000
   C     44.91000000    27.84000000    11.71000000
   O     45.37000000    26.87000000    12.31000000
   C     42.58000000    26.90000000    11.69000000
   C     42.07000000    27.31000000    13.06000000
   O     42.48000000    28.43000000    13.45000000
   O     41.25000000    26.62000000    13.70000000
   H     44.06000000    26.55000000     9.39000000
   H     43.13000000    28.85000000    11.13000000
   H     42.98000000    25.88000000    11.64000000
   H     41.77000000    26.74000000    10.99000000
   N     45.52000000    29.03000000    11.71000000
   C     46.88000000    29.35000000    12.10000000
   C     47.07000000    29.61000000    13.59000000
   O     46.47000000    30.53000000    14.16000000
   H     44.97000000    29.82000000    11.39000000
   H     47.11000000    30.31000000    11.64000000
   H     47.57000000    28.60000000    11.71000000
   N     47.89000000    28.79000000    14.23000000
   C     48.18000000    28.94000000    15.64000000
   C     49.13000000    30.08000000    16.00000000
   O     49.24000000    30.42000000    17.18000000
   C     48.73000000    27.68000000    16.31000000
   C     47.92000000    26.41000000    16.16000000
   N     48.08000000    25.55000000    15.15000000
   O     47.00000000    26.18000000    16.95000000
   H     48.15000000    27.95000000    13.73000000
   H     47.19000000    29.14000000    16.06000000
   H     48.79000000    27.89000000    17.38000000
   H     49.71000000    27.43000000    15.91000000
   H     48.63000000    25.76000000    14.34000000
   H     47.43000000    24.78000000    15.04000000
   N     49.81000000    30.70000000    15.04000000
   C     50.57000000    31.91000000    15.28000000
   C     51.91000000    31.64000000    15.95000000
   O     52.61000000    30.71000000    15.57000000
   H     49.44000000    30.58000000    14.11000000
   H     49.97000000    32.59000000    15.87000000
   H     50.80000000    32.41000000    14.34000000
   N     52.29000000    32.44000000    16.95000000
   C     53.29000000    32.17000000    17.96000000
   C     52.99000000    30.97000000    18.85000000
   O     53.71000000    30.82000000    19.83000000
   C     54.67000000    32.06000000    17.33000000
   C     55.06000000    33.26000000    16.49000000
   C     55.09000000    33.34000000    15.09000000
   C     55.34000000    34.40000000    17.25000000
   C     55.48000000    34.52000000    14.45000000
   C     55.73000000    35.57000000    16.60000000
   C     55.90000000    35.64000000    15.20000000
   O     56.17000000    36.80000000    14.53000000
   H     51.66000000    33.20000000    17.21000000
   H     53.44000000    32.99000000    18.67000000
   H     54.67000000    31.14000000    16.74000000
   H     55.40000000    31.85000000    18.11000000
   H     54.73000000    32.49000000    14.52000000
   H     55.24000000    34.43000000    18.33000000
   H     55.42000000    34.60000000    13.38000000
   H     55.84000000    36.50000000    17.14000000
   H     56.26000000    37.57000000    15.09000000
   N     52.04000000    30.09000000    18.50000000
   C     51.67000000    28.84000000    19.14000000
   C     51.17000000    28.87000000    20.58000000
   O     50.11000000    28.33000000    20.86000000
   C     52.67000000    27.71000000    18.90000000
   C     53.16000000    27.77000000    17.46000000
   C     52.07000000    26.35000000    19.21000000
   C     54.31000000    26.79000000    17.23000000
   H     51.57000000    30.47000000    17.70000000
   H     50.79000000    28.50000000    18.60000000
   H     53.51000000    27.94000000    19.56000000
   H     53.43000000    28.76000000    17.11000000
   H     52.43000000    27.40000000    16.74000000
   H     52.80000000    25.55000000    19.21000000
   H     51.64000000    26.33000000    20.21000000
   H     51.20000000    26.13000000    18.58000000
   H     55.32000000    26.99000000    17.61000000
   H     54.02000000    25.76000000    17.46000000
   H     54.48000000    26.72000000    16.16000000
   N     51.85000000    29.60000000    21.47000000
   C     51.19000000    30.21000000    22.61000000
   C     50.58000000    29.32000000    23.68000000
   O     49.77000000    29.72000000    24.52000000
   C     52.23000000    31.21000000    23.12000000
   O     52.23000000    32.34000000    22.27000000
   H     52.75000000    29.97000000    21.22000000
   H     50.35000000    30.82000000    22.29000000
   H     53.25000000    30.82000000    23.14000000
   H     51.92000000    31.67000000    24.05000000
   H     53.15000000    32.61000000    22.32000000
   N     51.04000000    28.08000000    23.82000000
   C     50.48000000    26.89000000    24.44000000
   C     48.97000000    26.73000000    24.47000000
   O     48.43000000    26.32000000    25.50000000
   C     51.09000000    26.86000000    25.84000000
   H     51.78000000    27.94000000    23.15000000
   H     50.82000000    26.04000000    23.86000000
   H     50.85000000    25.95000000    26.40000000
   H     52.17000000    26.99000000    25.79000000
   H     50.81000000    27.73000000    26.43000000
   N     48.31000000    27.14000000    23.39000000
   C     46.91000000    27.48000000    23.27000000
   C     46.25000000    26.62000000    22.20000000
   O     46.91000000    26.29000000    21.21000000
   C     46.58000000    28.96000000    23.07000000
   H     48.87000000    27.50000000    22.63000000
   H     46.41000000    27.25000000    24.21000000
   H     45.58000000    29.07000000    22.65000000
   H     46.67000000    29.47000000    24.03000000
   H     47.31000000    29.33000000    22.35000000
   N     45.01000000    26.20000000    22.48000000
   C     44.16000000    25.40000000    21.62000000
   C     44.63000000    23.98000000    21.39000000
   O     44.50000000    23.42000000    20.30000000
   C     43.66000000    26.15000000    20.39000000
   C     43.15000000    27.58000000    20.54000000
   C     42.70000000    28.04000000    19.15000000
   O     41.48000000    28.00000000    18.93000000
   O     43.55000000    28.36000000    18.30000000
   H     44.57000000    26.68000000    23.24000000
   H     43.19000000    25.32000000    22.12000000
   H     42.78000000    25.60000000    20.04000000
   H     44.37000000    26.13000000    19.56000000
   H     43.99000000    28.25000000    20.70000000
   H     42.33000000    27.70000000    21.24000000
   N     45.18000000    23.34000000    22.44000000
   C     45.92000000    22.10000000    22.50000000
   H     46.86800000    22.26800000    23.01000000
   H     45.34000000    21.35600000    23.04700000
   H     46.11100000    21.74100000    21.48900000
   H     45.35000000    23.99000000    23.19000000
  Ca     42.62000000    28.11000000    15.96000000
   O     44.71000000    26.92000000    15.02000000
   H     45.46000000    26.53000000    15.46000000
   H     44.98000000    26.98000000    14.10000000

Ca 1.70



