%chk=Ng-293_loop3_43.0.chk
%nprocshared=48
%mem=10GB
%nosave
#b3lyp/svp scf=(tight,noincore) Test 
#IOP(5/87=12) Density=Current Pop=(MK,readradii) iop(6/33=2) iop(6/42=6)

Ng-293_loop3_43.0 

   0   1
   C     31.47000000    74.09000000    83.58500000
   C     30.41000000    73.64000000    82.59500000
   O     29.32000000    73.16000000    82.90500000
   H     32.32400000    74.49600000    83.04300000
   H     31.05600000    74.85900000    84.23700000
   H     31.79300000    73.23900000    84.18500000
   N     30.72000000    73.87000000    81.31500000
   C     29.93000000    73.59000000    80.13500000
   C     28.76000000    74.54000000    79.88500000
   O     28.85000000    75.75000000    80.06500000
   C     30.86000000    73.59000000    78.92500000
   C     30.11000000    73.50000000    77.60500000
   O     29.19000000    72.66000000    77.50500000
   O     30.54000000    74.18000000    76.64500000
   H     31.68000000    74.11000000    81.10500000
   H     29.53000000    72.58000000    80.21500000
   H     31.55000000    72.78000000    79.16500000
   H     31.41000000    74.53000000    78.90500000
   N     27.57000000    74.01000000    79.61500000
   C     26.16000000    74.31000000    79.49500000
   C     25.74000000    75.49000000    78.63500000
   O     24.60000000    75.51000000    78.15500000
   C     25.64000000    74.45000000    80.93500000
   C     24.12000000    74.48000000    81.05500000
   C     23.60000000    74.36000000    82.48500000
   C     22.12000000    74.74000000    82.53500000
   N     21.62000000    74.80000000    83.91500000
   H     27.73000000    73.04000000    79.36500000
   H     25.64000000    73.49000000    78.99500000
   H     26.04000000    75.37000000    81.36500000
   H     26.01000000    73.58000000    81.47500000
   H     23.71000000    73.71000000    80.41500000
   H     23.92000000    75.47000000    80.65500000
   H     24.15000000    75.12000000    83.04500000
   H     23.75000000    73.35000000    82.84500000
   H     21.54000000    74.08000000    81.89500000
   H     22.04000000    75.76000000    82.16500000
   H     22.20000000    75.48000000    84.37500000
   H     20.65000000    75.05000000    84.03500000
   H     21.73000000    73.85000000    84.25500000
   N     26.66000000    76.40000000    78.33500000
   C     26.39000000    77.78000000    77.99500000
   C     27.48000000    78.54000000    77.25500000
   O     28.64000000    78.11000000    77.28500000
   C     25.95000000    78.63000000    79.18500000
   C     25.10000000    79.85000000    78.86500000
   O     24.65000000    80.49000000    79.84500000
   O     24.83000000    80.19000000    77.69500000
   H     27.60000000    76.16000000    78.64500000
   H     25.56000000    77.67000000    77.29500000
   H     26.88000000    78.94000000    79.67500000
   H     25.49000000    78.00000000    79.93500000
   N     27.19000000    79.61000000    76.51500000
   C     28.15000000    80.48000000    75.86500000
   C     27.47000000    81.84000000    75.78500000
   O     26.52000000    82.05000000    75.03500000
   H     26.23000000    79.90000000    76.65500000
   H     28.31000000    80.07000000    74.86500000
   H     29.08000000    80.50000000    76.43500000
   N     27.96000000    82.83000000    76.53500000
   C     27.23000000    84.03000000    76.88500000
   C     27.65000000    85.25000000    76.08500000
   O     26.92000000    86.24000000    76.17500000
   C     27.30000000    84.22000000    78.39500000
   C     26.49000000    83.16000000    79.14500000
   N     27.10000000    82.27000000    79.91500000
   O     25.27000000    83.10000000    79.04500000
   H     28.65000000    82.49000000    77.19500000
   H     26.18000000    83.91000000    76.63500000
   H     26.78000000    85.11000000    78.74500000
   H     28.32000000    84.28000000    78.76500000
   H     28.10000000    82.22000000    79.80500000
   H     26.69000000    81.50000000    80.43500000
   N     28.71000000    85.20000000    75.28500000
   C     29.00000000    86.23000000    74.29500000
   C     29.29000000    87.61000000    74.85500000
   O     30.37000000    87.87000000    75.37500000
   H     29.34000000    84.42000000    75.37500000
   H     28.05000000    86.38000000    73.76500000
   H     29.80000000    86.01000000    73.59500000
   N     28.28000000    88.49000000    74.87500000
   C     28.31000000    89.81000000    75.47500000
   C     28.44000000    89.71000000    76.99500000
   O     29.01000000    90.58000000    77.65500000
   C     29.25000000    90.75000000    74.72500000
   C     29.02000000    90.74000000    73.23500000
   C     29.88000000    89.94000000    72.48500000
   C     27.90000000    91.38000000    72.68500000
   C     29.63000000    89.82000000    71.11500000
   C     27.64000000    91.21000000    71.31500000
   C     28.48000000    90.39000000    70.53500000
   O     28.21000000    90.16000000    69.21500000
   H     27.39000000    88.23000000    74.49500000
   H     27.32000000    90.25000000    75.34500000
   H     30.31000000    90.71000000    74.97500000
   H     29.07000000    91.77000000    75.06500000
   H     30.77000000    89.47000000    72.88500000
   H     27.27000000    92.02000000    73.26500000
   H     30.23000000    89.16000000    70.50500000
   H     26.79000000    91.64000000    70.81500000
   H     27.37000000    90.50000000    68.89500000
   N     27.86000000    88.69000000    77.62500000
   C     27.62000000    88.36000000    79.01500000
   C     26.54000000    89.30000000    79.52500000
   O     25.53000000    88.82000000    80.02500000
   C     28.84000000    88.27000000    79.92500000
   C     29.67000000    87.05000000    79.54500000
   C     28.61000000    88.28000000    81.43500000
   C     31.19000000    87.22000000    79.59500000
   H     27.25000000    88.12000000    77.06500000
   H     27.13000000    87.39000000    79.10500000
   H     29.45000000    89.14000000    79.71500000
   H     29.52000000    86.93000000    78.46500000
   H     29.38000000    86.21000000    80.17500000
   H     27.79000000    87.60000000    81.65500000
   H     29.53000000    88.06000000    81.97500000
   H     28.32000000    89.29000000    81.72500000
   H     31.54000000    86.23000000    79.31500000
   H     31.48000000    88.05000000    78.94500000
   H     31.59000000    87.42000000    80.58500000
   N     26.67000000    90.61000000    79.26500000
   C     25.69000000    91.67000000    79.39500000
   C     25.25000000    91.95000000    80.82500000
   O     24.14000000    92.36000000    81.14500000
   C     26.17000000    93.00000000    78.81500000
   O     26.55000000    92.82000000    77.46500000
   H     27.59000000    90.77000000    78.86500000
   H     24.87000000    91.26000000    78.80500000
   H     27.06000000    93.33000000    79.35500000
   H     25.36000000    93.70000000    78.99500000
   H     27.38000000    93.27000000    77.30500000
   N     26.16000000    91.60000000    81.74500000
   C     26.13000000    91.38000000    83.17500000
   C     24.81000000    90.73000000    83.56500000
   O     24.18000000    91.24000000    84.48500000
   C     26.33000000    92.78000000    83.73500000
   H     27.08000000    91.46000000    81.36500000
   H     26.98000000    90.72000000    83.35500000
   H     26.26000000    92.79000000    84.82500000
   H     27.24000000    93.22000000    83.32500000
   H     25.53000000    93.40000000    83.32500000
   N     24.48000000    89.63000000    82.87500000
   C     23.28000000    88.84000000    82.99500000
   C     23.47000000    87.58000000    83.83500000
   O     24.62000000    87.31000000    84.16500000
   C     22.70000000    88.57000000    81.60500000
   H     25.11000000    89.35000000    82.14500000
   H     22.51000000    89.40000000    83.53500000
   H     21.72000000    88.11000000    81.72500000
   H     22.74000000    89.57000000    81.16500000
   H     23.36000000    87.93000000    81.03500000
   N     22.39000000    86.98000000    84.35500000
   C     22.30000000    85.71000000    85.04500000
   C     23.04000000    85.67000000    86.37500000
   O     23.28000000    84.59000000    86.92500000
   C     22.59000000    84.46000000    84.21500000
   C     21.78000000    84.39000000    82.92500000
   C     22.36000000    83.28000000    82.06500000
   O     23.26000000    83.45000000    81.20500000
   O     21.95000000    82.10000000    82.10500000
   H     21.54000000    87.52000000    84.37500000
   H     21.26000000    85.59000000    85.35500000
   H     22.28000000    83.57000000    84.77500000
   H     23.65000000    84.35000000    83.99500000
   H     22.09000000    85.30000000    82.41500000
   H     20.71000000    84.29000000    83.11500000
   N     23.46000000    86.78000000    86.99500000
   C     24.20000000    86.73000000    88.23500000
   H     25.09600000    87.34400000    88.14800000
   H     23.57800000    87.10900000    89.04600000
   H     24.48600000    85.70000000    88.44700000
   H     23.33000000    87.72000000    86.63500000
  Ca     22.82000000    82.16000000    79.03000000
   O     20.46000000    83.28000000    79.19000000
   H     20.17000000    84.10000000    79.60000000
   H     19.64000000    82.80000000    79.01000000

Ca 1.70



