%chk=Ng-31_loop3_17.0.chk
%nprocshared=48
%mem=10GB
%nosave
#b3lyp/svp scf=(tight,noincore) Test 
#IOP(5/87=12) Density=Current Pop=(MK,readradii) iop(6/33=2) iop(6/42=6)

Ng-31_loop3_17.0 

   0   1
   C     96.41000000    29.16000000    97.89300000
   C     97.88000000    29.33000000    97.53300000
   O     98.33000000    30.46000000    97.44300000
   H     95.80800000    29.19000000    96.98500000
   H     96.26600000    28.20200000    98.39200000
   H     96.10300000    29.96700000    98.55800000
   N     98.67000000    28.25000000    97.59300000
   C    100.01000000    28.18000000    97.06300000
   C    100.06000000    27.54000000    95.68300000
   O     99.11000000    26.96000000    95.16300000
   C    100.99000000    27.46000000    97.98300000
   C    100.48000000    26.14000000    98.56300000
   O     99.61000000    25.53000000    97.91300000
   O    100.96000000    25.67000000    99.61300000
   H     98.19000000    27.36000000    97.59300000
   H    100.46000000    29.17000000    97.10300000
   H    101.05000000    28.11000000    98.85300000
   H    101.99000000    27.43000000    97.55300000
   N    101.19000000    27.62000000    94.97300000
   C    101.38000000    27.13000000    93.62300000
   C    101.31000000    28.14000000    92.49300000
   O    101.29000000    27.83000000    91.30300000
   C    102.70000000    26.36000000    93.51300000
   C    102.90000000    25.31000000    94.60300000
   C    104.02000000    24.35000000    94.23300000
   C    103.92000000    22.91000000    94.72300000
   N    103.89000000    22.81000000    96.18300000
   H    102.00000000    28.00000000    95.44300000
   H    100.65000000    26.34000000    93.41300000
   H    103.55000000    27.03000000    93.60300000
   H    102.62000000    25.86000000    92.54300000
   H    102.02000000    24.67000000    94.60300000
   H    102.98000000    25.70000000    95.61300000
   H    104.97000000    24.81000000    94.52300000
   H    104.00000000    24.25000000    93.15300000
   H    104.85000000    22.40000000    94.44300000
   H    103.06000000    22.40000000    94.27300000
   H    103.07000000    23.29000000    96.53300000
   H    103.68000000    21.89000000    96.53300000
   H    104.67000000    23.30000000    96.59300000
   N    101.15000000    29.43000000    92.79300000
   C    100.85000000    30.47000000    91.83300000
   C    101.98000000    31.49000000    91.77300000
   O    102.24000000    32.00000000    90.69300000
   C     99.63000000    31.19000000    92.38300000
   C     99.50000000    31.53000000    93.86300000
   O     98.44000000    32.01000000    94.30300000
   O    100.43000000    31.27000000    94.66300000
   H    101.17000000    29.59000000    93.79300000
   H    100.58000000    30.18000000    90.81300000
   H     98.75000000    30.61000000    92.12300000
   H     99.47000000    32.14000000    91.86300000
   N    102.66000000    31.79000000    92.88300000
   C    103.65000000    32.84000000    93.02300000
   C    104.21000000    32.83000000    94.44300000
   O    103.88000000    31.94000000    95.21300000
   H    102.27000000    31.44000000    93.74300000
   H    103.22000000    33.79000000    92.71300000
   H    104.42000000    32.76000000    92.26300000
   N    105.12000000    33.67000000    94.94300000
   C    105.77000000    34.72000000    94.18300000
   C    105.95000000    36.06000000    94.88300000
   O    106.39000000    36.10000000    96.03300000
   C    107.09000000    34.16000000    93.67300000
   C    108.13000000    34.00000000    94.77300000
   N    109.18000000    34.79000000    94.55300000
   O    108.09000000    33.23000000    95.72300000
   H    105.47000000    33.39000000    95.84300000
   H    105.19000000    34.90000000    93.27300000
   H    107.41000000    34.83000000    92.87300000
   H    106.96000000    33.23000000    93.12300000
   H    109.14000000    35.34000000    93.71300000
   H    109.83000000    34.78000000    95.33300000
   N    105.67000000    37.25000000    94.35300000
   C    105.22000000    37.48000000    92.99300000
   C    103.75000000    37.23000000    92.69300000
   O    102.99000000    36.62000000    93.44300000
   H    105.56000000    38.03000000    94.99300000
   H    105.89000000    36.94000000    92.31300000
   H    105.39000000    38.54000000    92.81300000
   N    103.30000000    37.75000000    91.54300000
   C    101.97000000    37.80000000    90.97300000
   C    101.99000000    37.32000000    89.52300000
   O    102.96000000    37.34000000    88.77300000
   C    101.51000000    39.26000000    91.03300000
   C    101.17000000    39.89000000    92.36300000
   C     99.86000000    39.79000000    92.87300000
   C    102.15000000    40.51000000    93.14300000
   C     99.56000000    40.36000000    94.11300000
   C    101.91000000    40.97000000    94.44300000
   C    100.59000000    40.84000000    94.93300000
   O    100.30000000    41.19000000    96.22300000
   H    103.99000000    38.16000000    90.93300000
   H    101.25000000    37.07000000    91.34300000
   H    100.60000000    39.27000000    90.43300000
   H    102.18000000    39.89000000    90.46300000
   H     99.10000000    39.36000000    92.24300000
   H    103.14000000    40.70000000    92.76300000
   H     98.54000000    40.34000000    94.48300000
   H    102.70000000    41.40000000    95.05300000
   H    101.10000000    41.35000000    96.72300000
   N    100.84000000    36.79000000    89.09300000
   C    100.60000000    36.26000000    87.77300000
   C     99.29000000    36.69000000    87.11300000
   O     99.20000000    36.60000000    85.89300000
   C    100.58000000    34.73000000    87.78300000
   C    101.94000000    34.04000000    87.66300000
   C     99.69000000    34.12000000    88.85300000
   C    102.75000000    34.55000000    86.47300000
   H    100.13000000    36.66000000    89.80300000
   H    101.31000000    36.78000000    87.13300000
   H    100.05000000    34.37000000    86.90300000
   H    101.85000000    32.96000000    87.54300000
   H    102.53000000    34.21000000    88.55300000
   H     99.48000000    33.09000000    88.55300000
   H    100.15000000    34.08000000    89.84300000
   H     98.75000000    34.65000000    88.97300000
   H    103.65000000    33.95000000    86.64300000
   H    102.34000000    34.33000000    85.49300000
   H    103.02000000    35.60000000    86.52300000
   N     98.29000000    37.17000000    87.85300000
   C     96.99000000    37.52000000    87.33300000
   C     96.11000000    36.32000000    87.01300000
   O     95.03000000    36.49000000    86.44300000
   C     96.29000000    38.49000000    88.28300000
   O     95.93000000    37.93000000    89.52300000
   H     98.52000000    37.33000000    88.82300000
   H     97.13000000    38.15000000    86.45300000
   H     95.39000000    38.79000000    87.74300000
   H     96.95000000    39.34000000    88.48300000
   H     96.72000000    37.78000000    90.03300000
   N     96.51000000    35.13000000    87.46300000
   C     95.76000000    33.92000000    87.26300000
   C     95.60000000    33.13000000    88.55300000
   O     96.59000000    32.93000000    89.25300000
   C     96.36000000    33.04000000    86.16300000
   H     97.37000000    35.05000000    87.98300000
   H     94.74000000    34.13000000    86.94300000
   H     97.41000000    32.87000000    86.40300000
   H     95.82000000    32.09000000    86.13300000
   H     96.26000000    33.60000000    85.23300000
   N     94.37000000    32.68000000    88.85300000
   C     93.94000000    31.83000000    89.93300000
   C     94.48000000    32.12000000    91.32300000
   O     94.59000000    31.17000000    92.09300000
   C     93.95000000    30.38000000    89.44300000
   H     93.64000000    32.76000000    88.16300000
   H     92.85000000    31.94000000    89.98300000
   H     93.34000000    29.75000000    90.10300000
   H     93.62000000    30.36000000    88.40300000
   H     94.96000000    29.99000000    89.43300000
   N     94.96000000    33.33000000    91.62300000
   C     95.65000000    33.64000000    92.86300000
   C     94.81000000    34.54000000    93.75300000
   O     94.67000000    34.28000000    94.94300000
   C     96.99000000    34.31000000    92.55300000
   C     96.96000000    35.44000000    91.53300000
   C     98.25000000    36.22000000    91.42300000
   O     99.24000000    36.09000000    92.18300000
   O     98.24000000    37.19000000    90.63300000
   H     94.78000000    34.08000000    90.98300000
   H     95.90000000    32.69000000    93.34300000
   H     97.74000000    33.58000000    92.24300000
   H     97.23000000    34.66000000    93.55300000
   H     96.24000000    36.21000000    91.80300000
   H     96.56000000    35.07000000    90.58300000
   N     94.03000000    35.48000000    93.21300000
   C     93.10000000    36.29000000    93.98300000
   H     92.15600000    35.75500000    94.09100000
   H     93.52000000    36.48800000    94.96900000
   H     92.92500000    37.23400000    93.46600000
   H     93.93000000    35.56000000    92.21300000
  Ca     99.31000000    32.93000000    96.61000000
   O     99.08000000    33.21000000    99.22000000
   H     98.36000000    32.83000000    99.73000000
   H     99.28000000    34.03000000    99.66000000

Ca 1.70



