%chk=Ng-31_loop3_53.0.chk
%nprocshared=48
%mem=10GB
%nosave
#b3lyp/svp scf=(tight,noincore) Test 
#IOP(5/87=12) Density=Current Pop=(MK,readradii) iop(6/33=2) iop(6/42=6)

Ng-31_loop3_53.0 

   0   1
   C     94.75000000    73.44000000    17.25000000
   C     95.70000000    72.80000000    18.26000000
   O     95.30000000    72.16000000    19.23000000
   H     93.86600000    73.81100000    17.76800000
   H     95.25300000    74.26900000    16.75200000
   H     94.45200000    72.69800000    16.51000000
   N     96.98000000    73.17000000    18.19000000
   C     98.13000000    72.76000000    18.98000000
   C     98.15000000    73.31000000    20.40000000
   O     97.98000000    72.54000000    21.35000000
   C     99.39000000    73.12000000    18.19000000
   C     99.59000000    74.57000000    17.76000000
   O     98.64000000    75.37000000    17.85000000
   O    100.75000000    74.85000000    17.39000000
   H     97.11000000    73.94000000    17.56000000
   H     98.00000000    71.68000000    19.02000000
   H     99.45000000    72.50000000    17.30000000
   H    100.18000000    72.96000000    18.93000000
   N     98.48000000    74.60000000    20.54000000
   C     98.73000000    75.23000000    21.82000000
   C    100.04000000    74.78000000    22.46000000
   O    101.02000000    74.64000000    21.74000000
   C     98.80000000    76.74000000    21.60000000
   C     97.48000000    77.40000000    21.20000000
   C     97.63000000    78.91000000    21.32000000
   C     96.30000000    79.62000000    21.05000000
   N     96.31000000    81.08000000    21.22000000
   H     98.53000000    75.14000000    19.69000000
   H     97.94000000    74.97000000    22.53000000
   H     99.56000000    76.94000000    20.85000000
   H     99.16000000    77.19000000    22.52000000
   H     96.73000000    77.09000000    21.92000000
   H     97.06000000    77.16000000    20.22000000
   H     98.38000000    79.23000000    20.60000000
   H     97.89000000    79.16000000    22.34000000
   H     95.49000000    79.16000000    21.61000000
   H     96.09000000    79.42000000    20.00000000
   H     96.21000000    81.22000000    22.21000000
   H     97.15000000    81.48000000    20.84000000
   H     95.62000000    81.64000000    20.73000000
   N    100.12000000    74.43000000    23.75000000
   C    101.23000000    73.74000000    24.39000000
   C    101.33000000    72.30000000    23.92000000
   O    102.26000000    71.61000000    24.31000000
   C    100.99000000    73.83000000    25.89000000
   C     99.59000000    73.57000000    26.42000000
   O     99.45000000    72.66000000    27.27000000
   O     98.51000000    74.07000000    26.04000000
   H     99.32000000    74.68000000    24.31000000
   H    102.20000000    74.22000000    24.23000000
   H    101.16000000    74.88000000    26.13000000
   H    101.56000000    73.18000000    26.56000000
   N    100.44000000    71.77000000    23.08000000
   C    100.49000000    70.45000000    22.48000000
   C    101.21000000    70.37000000    21.14000000
   O    102.11000000    71.16000000    20.84000000
   H     99.72000000    72.36000000    22.68000000
   H     99.44000000    70.24000000    22.32000000
   H    100.89000000    69.74000000    23.21000000
   N    101.00000000    69.35000000    20.30000000
   C    100.06000000    68.25000000    20.35000000
   C     99.29000000    68.29000000    19.04000000
   O     99.86000000    67.98000000    18.00000000
   C    100.68000000    66.88000000    20.60000000
   C    101.35000000    66.66000000    21.95000000
   N    101.89000000    65.49000000    22.30000000
   O    101.48000000    67.60000000    22.74000000
   H    101.47000000    69.42000000    19.41000000
   H     99.28000000    68.38000000    21.10000000
   H    101.31000000    66.70000000    19.73000000
   H     99.89000000    66.15000000    20.45000000
   H    101.80000000    64.69000000    21.67000000
   H    102.34000000    65.41000000    23.20000000
   N     97.96000000    68.39000000    18.97000000
   C     97.05000000    69.01000000    19.92000000
   C     96.47000000    68.02000000    20.92000000
   O     96.19000000    68.37000000    22.06000000
   H     97.58000000    68.30000000    18.04000000
   H     96.23000000    69.47000000    19.36000000
   H     97.58000000    69.82000000    20.41000000
   N     96.24000000    66.78000000    20.50000000
   C     95.72000000    65.66000000    21.27000000
   C     96.63000000    65.30000000    22.44000000
   O     97.72000000    64.80000000    22.21000000
   C     95.29000000    64.47000000    20.42000000
   C     94.20000000    64.66000000    19.39000000
   C     93.22000000    65.65000000    19.49000000
   C     94.23000000    63.78000000    18.30000000
   C     92.16000000    65.68000000    18.58000000
   C     93.20000000    63.81000000    17.35000000
   C     92.19000000    64.79000000    17.49000000
   O     91.16000000    64.86000000    16.59000000
   H     96.39000000    66.68000000    19.51000000
   H     94.84000000    65.99000000    21.82000000
   H     94.92000000    63.70000000    21.10000000
   H     96.14000000    64.03000000    19.91000000
   H     93.36000000    66.38000000    20.28000000
   H     95.06000000    63.10000000    18.21000000
   H     91.37000000    66.41000000    18.63000000
   H     93.25000000    63.17000000    16.49000000
   H     91.29000000    64.23000000    15.88000000
   N     96.08000000    65.45000000    23.65000000
   C     96.62000000    64.98000000    24.91000000
   C     95.64000000    64.34000000    25.88000000
   O     96.10000000    63.62000000    26.76000000
   C     97.26000000    66.17000000    25.62000000
   C     98.43000000    66.86000000    24.92000000
   C     96.20000000    67.17000000    26.08000000
   C     99.29000000    67.78000000    25.78000000
   H     95.19000000    65.92000000    23.61000000
   H     97.37000000    64.20000000    24.77000000
   H     97.77000000    65.79000000    26.50000000
   H     98.11000000    67.44000000    24.05000000
   H     99.05000000    66.08000000    24.48000000
   H     95.60000000    66.84000000    26.92000000
   H     96.69000000    68.04000000    26.54000000
   H     95.49000000    67.42000000    25.30000000
   H    100.18000000    67.21000000    26.05000000
   H     99.69000000    68.63000000    25.23000000
   H     98.74000000    68.28000000    26.58000000
   N     94.32000000    64.49000000    25.74000000
   C     93.43000000    63.94000000    26.75000000
   C     92.28000000    64.88000000    27.06000000
   O     91.81000000    65.59000000    26.17000000
   C     92.86000000    62.62000000    26.24000000
   O     93.86000000    61.65000000    26.03000000
   H     93.93000000    65.06000000    25.01000000
   H     93.98000000    63.75000000    27.68000000
   H     92.19000000    62.72000000    25.38000000
   H     92.23000000    62.28000000    27.06000000
   H     94.32000000    61.73000000    25.19000000
   N     91.79000000    64.81000000    28.30000000
   C     90.64000000    65.59000000    28.69000000
   C     90.87000000    67.09000000    28.78000000
   O     91.99000000    67.60000000    28.81000000
   C     90.22000000    65.06000000    30.06000000
   H     92.18000000    64.13000000    28.93000000
   H     89.82000000    65.43000000    27.99000000
   H     89.21000000    65.42000000    30.28000000
   H     90.11000000    63.98000000    30.13000000
   H     90.97000000    65.27000000    30.83000000
   N     89.76000000    67.82000000    28.91000000
   C     89.65000000    69.26000000    29.02000000
   C     90.30000000    70.05000000    27.88000000
   O     90.69000000    71.20000000    28.07000000
   C     90.00000000    69.53000000    30.48000000
   H     88.90000000    67.29000000    28.96000000
   H     88.60000000    69.52000000    28.92000000
   H     91.05000000    69.28000000    30.64000000
   H     89.83000000    70.57000000    30.77000000
   H     89.36000000    68.90000000    31.09000000
   N     90.38000000    69.48000000    26.68000000
   C     90.70000000    70.27000000    25.51000000
   C     89.55000000    70.41000000    24.52000000
   O     89.52000000    71.48000000    23.92000000
   C     91.93000000    69.60000000    24.88000000
   C     93.31000000    69.64000000    25.53000000
   C     93.83000000    70.99000000    26.01000000
   O     93.49000000    72.05000000    25.45000000
   O     94.64000000    71.03000000    26.97000000
   H     89.96000000    68.58000000    26.53000000
   H     91.01000000    71.30000000    25.70000000
   H     91.96000000    70.03000000    23.88000000
   H     91.79000000    68.53000000    24.76000000
   H     94.06000000    69.18000000    24.90000000
   H     93.10000000    68.93000000    26.33000000
   N     88.65000000    69.44000000    24.35000000
   C     87.69000000    69.45000000    23.27000000
   H     86.82500000    70.04700000    23.55900000
   H     88.14800000    69.88100000    22.38000000
   H     87.37100000    68.43000000    23.05700000
   H     88.67000000    68.65000000    24.97000000
  Ca     96.82000000    72.51000000    27.43000000
   O     97.24000000    70.00000000    28.06000000
   H     96.45000000    69.49000000    28.18000000
   H     97.93000000    69.51000000    28.51000000

Ca 1.70



