%chk=Ng-31_loop3_22.0.chk
%nprocshared=48
%mem=10GB
%nosave
#b3lyp/svp scf=(tight,noincore) Test 
#IOP(5/87=12) Density=Current Pop=(MK,readradii) iop(6/33=2) iop(6/42=6)

Ng-31_loop3_22.0 

   0   1
   C     61.08000000    59.83000000    34.31000000
   C     60.69000000    58.63000000    35.15000000
   O     59.58000000    58.09000000    35.16000000
   H     62.08700000    59.68700000    33.91800000
   H     60.38000000    59.93700000    33.48100000
   H     61.05500000    60.72900000    34.92600000
   N     61.61000000    58.14000000    35.99000000
   C     61.46000000    57.03000000    36.91000000
   C     60.77000000    57.55000000    38.16000000
   O     59.92000000    56.86000000    38.73000000
   C     62.84000000    56.45000000    37.19000000
   C     64.08000000    57.34000000    37.14000000
   O     65.12000000    56.77000000    36.75000000
   O     64.03000000    58.53000000    37.53000000
   H     62.50000000    58.60000000    36.10000000
   H     60.69000000    56.39000000    36.47000000
   H     63.07000000    55.66000000    36.49000000
   H     62.76000000    56.04000000    38.20000000
   N     61.21000000    58.71000000    38.65000000
   C     60.67000000    59.39000000    39.80000000
   C     61.13000000    58.63000000    41.04000000
   O     62.32000000    58.54000000    41.32000000
   C     61.13000000    60.85000000    39.82000000
   C     60.66000000    61.70000000    38.64000000
   C     59.18000000    62.00000000    38.41000000
   C     58.92000000    63.02000000    37.30000000
   N     57.52000000    63.17000000    36.87000000
   H     62.12000000    59.03000000    38.32000000
   H     59.58000000    59.32000000    39.80000000
   H     62.21000000    60.91000000    39.81000000
   H     60.65000000    61.32000000    40.68000000
   H     61.12000000    61.28000000    37.75000000
   H     61.09000000    62.68000000    38.83000000
   H     58.72000000    62.42000000    39.30000000
   H     58.66000000    61.12000000    38.04000000
   H     59.53000000    62.76000000    36.44000000
   H     59.26000000    63.97000000    37.72000000
   H     56.97000000    63.57000000    37.61000000
   H     57.42000000    63.91000000    36.18000000
   H     57.14000000    62.33000000    36.45000000
   N     60.17000000    58.16000000    41.85000000
   C     60.45000000    57.21000000    42.90000000
   C     60.68000000    55.79000000    42.38000000
   O     60.80000000    54.83000000    43.14000000
   C     59.27000000    57.34000000    43.86000000
   C     57.90000000    57.28000000    43.20000000
   O     57.04000000    58.00000000    43.76000000
   O     57.83000000    56.53000000    42.20000000
   H     59.26000000    58.43000000    41.50000000
   H     61.35000000    57.43000000    43.46000000
   H     59.42000000    58.28000000    44.38000000
   H     59.29000000    56.56000000    44.62000000
   N     60.77000000    55.60000000    41.06000000
   C     61.55000000    54.51000000    40.53000000
   C     63.05000000    54.76000000    40.55000000
   O     63.51000000    55.83000000    40.96000000
   H     60.58000000    56.41000000    40.49000000
   H     61.19000000    54.24000000    39.53000000
   H     61.31000000    53.65000000    41.15000000
   N     63.86000000    53.82000000    40.07000000
   C     63.51000000    52.45000000    39.73000000
   C     64.38000000    52.02000000    38.56000000
   O     65.59000000    51.92000000    38.77000000
   C     63.71000000    51.66000000    41.02000000
   C     63.66000000    50.15000000    40.83000000
   N     64.00000000    49.38000000    41.88000000
   O     63.47000000    49.70000000    39.70000000
   H     64.83000000    54.07000000    39.91000000
   H     62.45000000    52.32000000    39.50000000
   H     62.96000000    51.79000000    41.79000000
   H     64.70000000    51.94000000    41.39000000
   H     64.10000000    49.78000000    42.80000000
   H     63.72000000    48.42000000    41.78000000
   N     63.96000000    51.76000000    37.32000000
   C     62.79000000    52.37000000    36.72000000
   C     61.53000000    51.52000000    36.82000000
   O     60.51000000    51.93000000    36.26000000
   H     64.68000000    51.57000000    36.64000000
   H     63.01000000    52.57000000    35.67000000
   H     62.56000000    53.36000000    37.11000000
   N     61.52000000    50.44000000    37.60000000
   C     60.26000000    49.79000000    37.93000000
   C     59.44000000    50.55000000    38.96000000
   O     59.94000000    51.01000000    39.98000000
   C     60.61000000    48.41000000    38.47000000
   C     61.26000000    47.41000000    37.55000000
   C     60.44000000    46.62000000    36.73000000
   C     62.65000000    47.31000000    37.42000000
   C     61.02000000    45.85000000    35.72000000
   C     63.29000000    46.57000000    36.42000000
   C     62.43000000    45.78000000    35.63000000
   O     63.01000000    44.91000000    34.76000000
   H     62.37000000    50.22000000    38.08000000
   H     59.78000000    49.66000000    36.96000000
   H     59.71000000    48.07000000    38.98000000
   H     61.35000000    48.65000000    39.23000000
   H     59.36000000    46.65000000    36.71000000
   H     63.29000000    47.85000000    38.11000000
   H     60.35000000    45.24000000    35.13000000
   H     64.35000000    46.38000000    36.35000000
   H     63.92000000    45.20000000    34.74000000
   N     58.19000000    50.91000000    38.64000000
   C     57.28000000    51.78000000    39.35000000
   C     56.40000000    50.99000000    40.31000000
   O     55.84000000    49.95000000    39.97000000
   C     56.56000000    52.82000000    38.49000000
   C     57.61000000    53.72000000    37.85000000
   C     55.63000000    52.11000000    37.52000000
   C     57.04000000    54.81000000    36.94000000
   H     57.85000000    50.60000000    37.75000000
   H     57.84000000    52.38000000    40.06000000
   H     55.93000000    53.33000000    39.22000000
   H     58.23000000    53.10000000    37.20000000
   H     58.20000000    54.19000000    38.63000000
   H     54.84000000    51.58000000    38.06000000
   H     55.17000000    52.83000000    36.84000000
   H     56.04000000    51.32000000    36.88000000
   H     57.76000000    55.61000000    36.78000000
   H     56.66000000    54.33000000    36.03000000
   H     56.12000000    55.20000000    37.37000000
   N     56.21000000    51.50000000    41.53000000
   C     55.47000000    50.90000000    42.61000000
   C     53.98000000    50.66000000    42.38000000
   O     53.50000000    50.68000000    41.25000000
   C     56.14000000    49.59000000    43.03000000
   O     57.26000000    49.87000000    43.84000000
   H     56.57000000    52.44000000    41.68000000
   H     55.42000000    51.64000000    43.41000000
   H     56.38000000    49.00000000    42.14000000
   H     55.53000000    48.91000000    43.62000000
   H     57.72000000    50.64000000    43.51000000
   N     53.27000000    50.35000000    43.47000000
   C     51.84000000    50.15000000    43.48000000
   C     51.02000000    51.35000000    43.04000000
   O     51.16000000    52.47000000    43.52000000
   C     51.48000000    49.63000000    44.87000000
   H     53.82000000    50.39000000    44.32000000
   H     51.59000000    49.26000000    42.90000000
   H     51.87000000    48.61000000    44.90000000
   H     51.96000000    50.23000000    45.64000000
   H     50.39000000    49.65000000    44.99000000
   N     50.06000000    51.14000000    42.13000000
   C     49.09000000    52.12000000    41.69000000
   C     49.78000000    53.34000000    41.09000000
   O     49.23000000    54.43000000    41.20000000
   C     48.13000000    52.45000000    42.83000000
   H     50.12000000    50.31000000    41.56000000
   H     48.37000000    51.66000000    41.01000000
   H     47.65000000    51.61000000    43.31000000
   H     48.74000000    52.89000000    43.62000000
   H     47.38000000    53.10000000    42.38000000
   N     50.98000000    53.28000000    40.52000000
   C     51.65000000    54.36000000    39.81000000
   C     51.27000000    54.28000000    38.34000000
   O     51.31000000    55.33000000    37.69000000
   C     53.17000000    54.22000000    39.93000000
   C     53.86000000    55.58000000    39.86000000
   C     53.80000000    56.35000000    41.18000000
   O     54.33000000    55.92000000    42.23000000
   O     53.19000000    57.43000000    41.27000000
   H     51.38000000    52.35000000    40.52000000
   H     51.33000000    55.27000000    40.31000000
   H     53.45000000    53.71000000    39.02000000
   H     53.42000000    53.58000000    40.77000000
   H     53.46000000    56.17000000    39.04000000
   H     54.94000000    55.51000000    39.72000000
   N     50.75000000    53.13000000    37.90000000
   C     50.02000000    53.13000000    36.65000000
   H     49.12400000    53.74200000    36.75300000
   H     50.65000000    53.54000000    35.86100000
   H     49.73500000    52.10900000    36.39500000
   H     50.83000000    52.26000000    38.41000000
  Ca     54.48000000    58.22000000    43.53000000
   O     52.41000000    56.95000000    44.50000000
   H     51.75000000    56.27000000    44.35000000
   H     52.31000000    57.19000000    45.42000000

Ca 1.70



