%chk=Ng-31_loop3_38.0.chk
%nprocshared=48
%mem=10GB
%nosave
#b3lyp/svp scf=(tight,noincore) Test 
#IOP(5/87=12) Density=Current Pop=(MK,readradii) iop(6/33=2) iop(6/42=6)

Ng-31_loop3_38.0 

   0   1
   C     61.82000000    64.61000000    32.14000000
   C     62.22000000    63.92000000    33.44000000
   O     61.38000000    63.12000000    33.85000000
   H     60.96600000    65.26200000    32.32300000
   H     62.65700000    65.20300000    31.77000000
   H     61.55000000    63.85900000    31.39800000
   N     63.37000000    64.20000000    34.04000000
   C     63.82000000    63.55000000    35.26000000
   C     63.11000000    63.97000000    36.54000000
   O     62.75000000    63.15000000    37.38000000
   C     65.33000000    63.72000000    35.39000000
   C     65.89000000    65.13000000    35.51000000
   O     67.09000000    65.12000000    35.87000000
   O     65.24000000    66.14000000    35.17000000
   H     63.81000000    65.05000000    33.72000000
   H     63.60000000    62.50000000    35.08000000
   H     65.85000000    63.24000000    34.56000000
   H     65.66000000    63.25000000    36.32000000
   N     62.88000000    65.28000000    36.65000000
   C     62.51000000    65.90000000    37.91000000
   C     63.71000000    65.95000000    38.84000000
   O     64.25000000    67.00000000    39.18000000
   C     61.75000000    67.20000000    37.62000000
   C     60.65000000    67.44000000    38.65000000
   C     59.88000000    68.74000000    38.43000000
   C     58.62000000    68.73000000    39.29000000
   N     57.55000000    69.67000000    38.89000000
   H     63.22000000    65.95000000    35.98000000
   H     61.72000000    65.28000000    38.34000000
   H     61.24000000    67.15000000    36.66000000
   H     62.42000000    68.05000000    37.60000000
   H     60.98000000    67.37000000    39.69000000
   H     59.96000000    66.61000000    38.49000000
   H     59.59000000    68.85000000    37.39000000
   H     60.47000000    69.61000000    38.70000000
   H     58.87000000    68.89000000    40.33000000
   H     58.19000000    67.73000000    39.23000000
   H     56.72000000    69.53000000    39.44000000
   H     57.85000000    70.62000000    39.02000000
   H     57.24000000    69.50000000    37.94000000
   N     63.97000000    64.75000000    39.36000000
   C     65.04000000    64.44000000    40.29000000
   C     65.66000000    63.06000000    40.07000000
   O     66.45000000    62.67000000    40.92000000
   C     64.46000000    64.64000000    41.69000000
   C     63.21000000    63.84000000    42.01000000
   O     62.77000000    62.90000000    41.32000000
   O     62.56000000    64.00000000    43.07000000
   H     63.34000000    64.00000000    39.11000000
   H     65.88000000    65.11000000    40.12000000
   H     64.28000000    65.70000000    41.86000000
   H     65.19000000    64.26000000    42.40000000
   N     65.28000000    62.33000000    39.02000000
   C     65.77000000    61.03000000    38.64000000
   C     67.26000000    60.73000000    38.47000000
   O     67.96000000    61.60000000    37.97000000
   H     64.55000000    62.73000000    38.44000000
   H     65.27000000    60.84000000    37.69000000
   H     65.42000000    60.23000000    39.30000000
   N     67.81000000    59.56000000    38.80000000
   C     67.14000000    58.32000000    39.13000000
   C     68.11000000    57.23000000    38.70000000
   O     69.01000000    56.96000000    39.50000000
   C     66.80000000    58.32000000    40.62000000
   C     65.92000000    57.16000000    41.04000000
   N     64.69000000    57.40000000    41.51000000
   O     66.33000000    56.00000000    41.05000000
   H     68.81000000    59.64000000    38.91000000
   H     66.21000000    58.20000000    38.57000000
   H     66.56000000    59.29000000    41.06000000
   H     67.73000000    58.05000000    41.13000000
   H     64.31000000    58.32000000    41.70000000
   H     64.15000000    56.59000000    41.77000000
   N     68.14000000    56.67000000    37.49000000
   C     67.42000000    57.12000000    36.31000000
   C     66.07000000    56.45000000    36.12000000
   O     65.12000000    57.16000000    35.79000000
   H     68.69000000    55.83000000    37.38000000
   H     68.00000000    57.00000000    35.39000000
   H     67.28000000    58.20000000    36.39000000
   N     65.85000000    55.19000000    36.51000000
   C     64.52000000    54.61000000    36.58000000
   C     63.92000000    55.04000000    37.91000000
   O     64.66000000    55.28000000    38.86000000
   C     64.63000000    53.09000000    36.53000000
   C     64.78000000    52.53000000    35.13000000
   C     63.70000000    51.89000000    34.52000000
   C     65.98000000    52.72000000    34.43000000
   C     63.87000000    51.32000000    33.25000000
   C     66.12000000    52.21000000    33.13000000
   C     65.05000000    51.54000000    32.51000000
   O     65.02000000    51.20000000    31.19000000
   H     66.61000000    54.66000000    36.90000000
   H     63.88000000    54.88000000    35.75000000
   H     63.70000000    52.74000000    36.98000000
   H     65.29000000    52.56000000    37.22000000
   H     62.87000000    51.61000000    35.15000000
   H     66.76000000    53.37000000    34.76000000
   H     63.06000000    50.83000000    32.73000000
   H     67.04000000    52.47000000    32.63000000
   H     65.85000000    51.27000000    30.72000000
   N     62.60000000    55.17000000    38.07000000
   C     61.99000000    55.85000000    39.19000000
   C     61.13000000    54.91000000    40.04000000
   O     60.68000000    53.88000000    39.55000000
   C     61.41000000    57.19000000    38.75000000
   C     62.49000000    58.07000000    38.14000000
   C     60.31000000    57.02000000    37.71000000
   C     62.11000000    59.52000000    37.82000000
   H     61.95000000    54.81000000    37.38000000
   H     62.75000000    56.06000000    39.95000000
   H     61.05000000    57.72000000    39.63000000
   H     62.74000000    57.64000000    37.17000000
   H     63.32000000    58.20000000    38.83000000
   H     60.79000000    56.62000000    36.82000000
   H     59.62000000    56.26000000    38.07000000
   H     59.78000000    57.96000000    37.51000000
   H     63.01000000    60.12000000    37.68000000
   H     61.51000000    59.48000000    36.92000000
   H     61.51000000    60.07000000    38.55000000
   N     61.01000000    55.28000000    41.32000000
   C     60.21000000    54.58000000    42.30000000
   C     58.72000000    54.55000000    42.00000000
   O     58.21000000    54.93000000    40.95000000
   C     60.84000000    53.26000000    42.74000000
   O     62.13000000    53.53000000    43.24000000
   H     61.33000000    56.17000000    41.67000000
   H     60.20000000    55.12000000    43.25000000
   H     60.88000000    52.52000000    41.94000000
   H     60.31000000    53.06000000    43.67000000
   H     62.55000000    54.10000000    42.59000000
   N     58.01000000    54.23000000    43.09000000
   C     56.57000000    54.12000000    43.20000000
   C     55.92000000    55.48000000    43.02000000
   O     56.41000000    56.48000000    43.53000000
   C     56.09000000    53.44000000    44.48000000
   H     58.51000000    53.93000000    43.92000000
   H     56.33000000    53.48000000    42.35000000
   H     56.52000000    52.44000000    44.54000000
   H     56.36000000    54.00000000    45.37000000
   H     55.02000000    53.24000000    44.41000000
   N     54.79000000    55.51000000    42.31000000
   C     54.00000000    56.70000000    42.09000000
   C     54.57000000    57.94000000    41.42000000
   O     53.91000000    58.97000000    41.51000000
   C     53.29000000    57.02000000    43.40000000
   H     54.59000000    54.62000000    41.87000000
   H     53.21000000    56.39000000    41.40000000
   H     52.36000000    57.51000000    43.12000000
   H     53.07000000    56.10000000    43.95000000
   H     53.95000000    57.72000000    43.92000000
   N     55.78000000    57.82000000    40.87000000
   C     56.30000000    58.78000000    39.91000000
   C     55.59000000    58.76000000    38.57000000
   O     55.21000000    59.76000000    37.96000000
   C     57.81000000    58.56000000    39.82000000
   C     58.59000000    59.84000000    39.53000000
   C     59.15000000    60.50000000    40.79000000
   O     60.30000000    60.22000000    41.20000000
   O     58.47000000    61.41000000    41.31000000
   H     56.20000000    56.92000000    41.01000000
   H     56.10000000    59.77000000    40.33000000
   H     57.98000000    57.93000000    38.95000000
   H     58.25000000    58.05000000    40.67000000
   H     57.89000000    60.47000000    38.98000000
   H     59.37000000    59.52000000    38.84000000
   N     55.35000000    57.58000000    37.99000000
   C     54.31000000    57.29000000    37.02000000
   H     53.46500000    57.95900000    37.18300000
   H     54.70000000    57.43700000    36.01300000
   H     53.98200000    56.25700000    37.13600000
   H     55.68000000    56.75000000    38.47000000
  Ca     60.41000000    62.50000000    42.70000000
   O     59.98000000    63.86000000    40.45000000
   H     59.07000000    64.16000000    40.51000000
   H     60.02000000    63.41000000    39.61000000

Ca 1.70



