%chk=Ng-31_loop3_19.0.chk
%nprocshared=48
%mem=10GB
%nosave
#b3lyp/svp scf=(tight,noincore) Test 
#IOP(5/87=12) Density=Current Pop=(MK,readradii) iop(6/33=2) iop(6/42=6)

Ng-31_loop3_19.0 

   0   1
   C     62.66000000    59.17000000    36.35000000
   C     62.67000000    58.01000000    37.34000000
   O     61.66000000    57.39000000    37.67000000
   H     62.99200000    60.07900000    36.85200000
   H     63.33300000    58.94700000    35.52200000
   H     61.64900000    59.31500000    35.96900000
   N     63.86000000    57.69000000    37.84000000
   C     64.19000000    56.51000000    38.62000000
   C     63.69000000    56.62000000    40.05000000
   O     62.72000000    55.98000000    40.46000000
   C     65.69000000    56.32000000    38.44000000
   C     66.56000000    57.54000000    38.69000000
   O     66.08000000    58.65000000    39.00000000
   O     67.79000000    57.40000000    38.47000000
   H     64.71000000    58.12000000    37.50000000
   H     63.64000000    55.69000000    38.14000000
   H     65.89000000    55.82000000    37.49000000
   H     66.00000000    55.55000000    39.15000000
   N     64.22000000    57.55000000    40.86000000
   C     63.64000000    58.04000000    42.09000000
   C     63.99000000    57.09000000    43.23000000
   O     65.15000000    56.94000000    43.61000000
   C     64.13000000    59.45000000    42.41000000
   C     63.52000000    60.47000000    41.44000000
   C     63.92000000    61.89000000    41.83000000
   C     63.38000000    63.02000000    40.96000000
   N     63.27000000    62.60000000    39.55000000
   H     64.83000000    58.20000000    40.40000000
   H     62.56000000    58.05000000    41.96000000
   H     65.22000000    59.50000000    42.41000000
   H     63.89000000    59.73000000    43.43000000
   H     62.45000000    60.27000000    41.53000000
   H     63.83000000    60.26000000    40.42000000
   H     65.00000000    61.94000000    41.80000000
   H     63.56000000    62.10000000    42.84000000
   H     63.90000000    63.97000000    41.07000000
   H     62.35000000    63.21000000    41.25000000
   H     62.70000000    61.77000000    39.56000000
   H     62.66000000    63.33000000    39.20000000
   H     64.11000000    62.54000000    39.00000000
   N     62.97000000    56.35000000    43.66000000
   C     63.03000000    55.31000000    44.66000000
   C     63.36000000    53.94000000    44.08000000
   O     63.77000000    53.01000000    44.78000000
   C     61.69000000    55.29000000    45.40000000
   C     61.18000000    56.60000000    45.96000000
   O     61.84000000    57.40000000    46.66000000
   O     59.97000000    56.82000000    45.72000000
   H     62.08000000    56.65000000    43.29000000
   H     63.84000000    55.61000000    45.33000000
   H     61.74000000    54.43000000    46.07000000
   H     60.97000000    55.09000000    44.61000000
   N     63.23000000    53.76000000    42.77000000
   C     64.05000000    52.77000000    42.09000000
   C     65.55000000    53.07000000    42.12000000
   O     66.03000000    53.99000000    42.77000000
   H     63.06000000    54.60000000    42.23000000
   H     63.81000000    52.63000000    41.04000000
   H     63.96000000    51.87000000    42.69000000
   N     66.36000000    52.11000000    41.68000000
   C     66.17000000    50.72000000    41.29000000
   C     67.04000000    50.20000000    40.16000000
   O     68.08000000    49.57000000    40.35000000
   C     66.18000000    49.93000000    42.60000000
   C     66.02000000    48.44000000    42.37000000
   N     67.08000000    47.64000000    42.50000000
   O     64.99000000    48.04000000    41.83000000
   H     67.31000000    52.35000000    41.91000000
   H     65.13000000    50.55000000    41.02000000
   H     65.33000000    50.13000000    43.25000000
   H     67.09000000    50.06000000    43.19000000
   H     67.89000000    48.14000000    42.83000000
   H     66.98000000    46.64000000    42.63000000
   N     66.78000000    50.45000000    38.88000000
   C     65.97000000    51.57000000    38.45000000
   C     64.51000000    51.20000000    38.22000000
   O     63.67000000    51.99000000    37.79000000
   H     67.30000000    49.97000000    38.15000000
   H     66.37000000    52.11000000    37.58000000
   H     65.91000000    52.33000000    39.22000000
   N     64.13000000    49.95000000    38.49000000
   C     62.79000000    49.42000000    38.55000000
   C     62.10000000    50.13000000    39.71000000
   O     62.78000000    50.40000000    40.70000000
   C     62.85000000    47.90000000    38.66000000
   C     63.41000000    47.23000000    37.43000000
   C     62.51000000    46.97000000    36.38000000
   C     64.75000000    46.84000000    37.36000000
   C     62.99000000    46.33000000    35.23000000
   C     65.24000000    46.24000000    36.19000000
   C     64.35000000    45.97000000    35.13000000
   O     64.72000000    45.12000000    34.13000000
   H     64.83000000    49.33000000    38.86000000
   H     62.29000000    49.74000000    37.64000000
   H     61.84000000    47.57000000    38.92000000
   H     63.52000000    47.60000000    39.46000000
   H     61.49000000    47.32000000    36.46000000
   H     65.48000000    47.03000000    38.14000000
   H     62.37000000    46.17000000    34.37000000
   H     66.23000000    45.83000000    36.31000000
   H     65.68000000    45.10000000    34.11000000
   N     60.84000000    50.57000000    39.60000000
   C     60.17000000    51.45000000    40.53000000
   C     59.11000000    50.62000000    41.24000000
   O     58.51000000    49.73000000    40.64000000
   C     59.59000000    52.62000000    39.76000000
   C     60.73000000    53.47000000    39.18000000
   C     58.64000000    52.21000000    38.64000000
   C     60.29000000    54.75000000    38.49000000
   H     60.28000000    50.17000000    38.86000000
   H     60.87000000    51.79000000    41.30000000
   H     59.03000000    53.28000000    40.42000000
   H     61.22000000    52.84000000    38.43000000
   H     61.50000000    53.59000000    39.95000000
   H     57.82000000    51.63000000    39.06000000
   H     58.35000000    53.09000000    38.06000000
   H     59.21000000    51.68000000    37.88000000
   H     59.90000000    54.58000000    37.48000000
   H     59.47000000    55.29000000    38.96000000
   H     61.12000000    55.45000000    38.53000000
   N     58.74000000    51.02000000    42.46000000
   C     57.76000000    50.44000000    43.36000000
   C     56.30000000    50.52000000    42.95000000
   O     55.98000000    50.71000000    41.77000000
   C     58.20000000    49.04000000    43.80000000
   O     57.86000000    48.14000000    42.77000000
   H     59.25000000    51.80000000    42.84000000
   H     57.78000000    51.11000000    44.22000000
   H     57.66000000    48.62000000    44.65000000
   H     59.26000000    48.92000000    44.01000000
   H     58.10000000    48.38000000    41.87000000
   N     55.40000000    50.41000000    43.92000000
   C     53.96000000    50.52000000    43.82000000
   C     53.45000000    51.95000000    43.95000000
   O     54.06000000    52.70000000    44.70000000
   C     53.26000000    49.65000000    44.86000000
   H     55.70000000    50.22000000    44.86000000
   H     53.74000000    50.12000000    42.83000000
   H     53.47000000    48.60000000    44.66000000
   H     53.75000000    49.89000000    45.81000000
   H     52.18000000    49.73000000    44.81000000
   N     52.46000000    52.29000000    43.12000000
   C     52.02000000    53.65000000    42.86000000
   C     53.12000000    54.66000000    42.57000000
   O     53.23000000    55.76000000    43.11000000
   C     51.03000000    53.99000000    43.97000000
   H     52.09000000    51.54000000    42.55000000
   H     51.42000000    53.56000000    41.96000000
   H     50.63000000    55.00000000    43.88000000
   H     50.29000000    53.18000000    43.96000000
   H     51.52000000    53.88000000    44.93000000
   N     53.99000000    54.21000000    41.66000000
   C     54.93000000    55.16000000    41.09000000
   C     54.65000000    55.47000000    39.63000000
   O     54.80000000    56.61000000    39.19000000
   C     56.33000000    54.59000000    41.29000000
   C     57.41000000    55.64000000    41.48000000
   C     57.30000000    56.43000000    42.77000000
   O     57.62000000    55.84000000    43.82000000
   O     56.91000000    57.62000000    42.67000000
   H     53.88000000    53.24000000    41.40000000
   H     54.91000000    56.11000000    41.62000000
   H     56.52000000    53.91000000    40.46000000
   H     56.41000000    53.97000000    42.19000000
   H     57.29000000    56.32000000    40.64000000
   H     58.40000000    55.18000000    41.35000000
   N     54.11000000    54.51000000    38.88000000
   C     53.11000000    54.72000000    37.85000000
   H     52.25500000    55.24400000    38.27600000
   H     53.53700000    55.31700000    37.04500000
   H     52.78500000    53.75700000    37.45600000
   H     54.21000000    53.54000000    39.11000000
  Ca     57.54000000    56.10000000    46.33000000
   O     57.60000000    53.64000000    45.75000000
   H     58.34000000    53.05000000    45.95000000
   H     56.86000000    53.05000000    45.63000000

Ca 1.70



