%chk=Ng-31_loop3_13.0.chk
%nprocshared=48
%mem=10GB
%nosave
#b3lyp/svp scf=(tight,noincore) Test 
#IOP(5/87=12) Density=Current Pop=(MK,readradii) iop(6/33=2) iop(6/42=6)

Ng-31_loop3_13.0 

   0   1
   C     87.53000000    73.99000000    28.25000000
   C     87.45000000    73.14000000    29.52000000
   O     86.41000000    73.15000000    30.17000000
   H     88.56200000    74.30100000    28.08600000
   H     87.18800000    73.40300000    27.39700000
   H     86.89900000    74.87200000    28.36200000
   N     88.40000000    72.27000000    29.85000000
   C     88.30000000    71.39000000    31.00000000
   C     88.42000000    72.10000000    32.34000000
   O     87.82000000    71.60000000    33.28000000
   C     89.20000000    70.16000000    30.88000000
   C     90.65000000    70.36000000    30.46000000
   O     91.11000000    71.52000000    30.41000000
   O     91.39000000    69.45000000    30.03000000
   H     89.23000000    72.27000000    29.27000000
   H     87.30000000    70.95000000    30.98000000
   H     88.72000000    69.42000000    30.24000000
   H     89.25000000    69.68000000    31.85000000
   N     89.08000000    73.25000000    32.48000000
   C     89.23000000    73.88000000    33.78000000
   C     90.10000000    73.14000000    34.78000000
   O     91.21000000    72.71000000    34.45000000
   C     89.69000000    75.33000000    33.59000000
   C     89.24000000    76.01000000    32.30000000
   C     89.62000000    77.49000000    32.32000000
   C     88.90000000    78.21000000    31.18000000
   N     89.55000000    79.49000000    30.87000000
   H     89.67000000    73.56000000    31.72000000
   H     88.24000000    73.92000000    34.24000000
   H     90.74000000    75.43000000    33.83000000
   H     89.27000000    75.86000000    34.44000000
   H     88.16000000    75.94000000    32.27000000
   H     89.65000000    75.58000000    31.38000000
   H     90.68000000    77.52000000    32.09000000
   H     89.53000000    77.94000000    33.31000000
   H     87.91000000    78.37000000    31.59000000
   H     88.82000000    77.64000000    30.25000000
   H     90.54000000    79.28000000    30.96000000
   H     89.37000000    79.92000000    29.98000000
   H     89.47000000    80.16000000    31.62000000
   N     89.63000000    72.95000000    36.01000000
   C     90.14000000    72.06000000    37.03000000
   C     89.66000000    70.62000000    36.95000000
   O     90.12000000    69.74000000    37.67000000
   C     90.11000000    72.65000000    38.44000000
   C     88.69000000    72.94000000    38.91000000
   O     88.16000000    74.01000000    38.53000000
   O     88.03000000    72.17000000    39.64000000
   H     88.74000000    73.41000000    36.18000000
   H     91.22000000    72.01000000    36.91000000
   H     90.67000000    73.58000000    38.56000000
   H     90.61000000    71.99000000    39.14000000
   N     88.83000000    70.40000000    35.93000000
   C     88.18000000    69.14000000    35.60000000
   C     88.83000000    68.46000000    34.40000000
   O     90.04000000    68.55000000    34.23000000
   H     88.49000000    71.16000000    35.36000000
   H     87.15000000    69.30000000    35.31000000
   H     88.11000000    68.50000000    36.47000000
   N     88.14000000    67.64000000    33.60000000
   C     86.84000000    67.00000000    33.74000000
   C     86.07000000    66.92000000    32.43000000
   O     85.93000000    65.84000000    31.86000000
   C     87.16000000    65.61000000    34.27000000
   C     87.80000000    65.59000000    35.65000000
   N     89.08000000    65.20000000    35.69000000
   O     87.16000000    65.74000000    36.68000000
   H     88.63000000    67.30000000    32.79000000
   H     86.31000000    67.39000000    34.60000000
   H     87.78000000    65.04000000    33.56000000
   H     86.23000000    65.06000000    34.41000000
   H     89.60000000    65.05000000    34.83000000
   H     89.35000000    65.00000000    36.64000000
   N     85.41000000    67.99000000    31.99000000
   C     85.44000000    69.35000000    32.48000000
   C     84.36000000    69.73000000    33.48000000
   O     84.47000000    70.86000000    33.95000000
   H     84.91000000    67.68000000    31.16000000
   H     85.40000000    70.08000000    31.66000000
   H     86.37000000    69.42000000    33.05000000
   N     83.49000000    68.82000000    33.94000000
   C     82.39000000    69.23000000    34.78000000
   C     82.81000000    69.19000000    36.24000000
   O     83.81000000    68.54000000    36.54000000
   C     81.20000000    68.30000000    34.55000000
   C     80.43000000    68.36000000    33.26000000
   C     79.84000000    69.52000000    32.74000000
   C     80.17000000    67.16000000    32.58000000
   C     79.07000000    69.57000000    31.57000000
   C     79.43000000    67.20000000    31.39000000
   C     78.86000000    68.37000000    30.85000000
   O     78.05000000    68.42000000    29.75000000
   H     83.61000000    67.88000000    33.59000000
   H     82.10000000    70.26000000    34.54000000
   H     80.47000000    68.58000000    35.32000000
   H     81.41000000    67.27000000    34.81000000
   H     79.93000000    70.45000000    33.28000000
   H     80.45000000    66.18000000    32.94000000
   H     78.58000000    70.49000000    31.31000000
   H     79.23000000    66.28000000    30.87000000
   H     77.62000000    67.57000000    29.65000000
   N     82.08000000    69.91000000    37.10000000
   C     82.51000000    70.10000000    38.47000000
   C     81.77000000    69.23000000    39.48000000
   O     82.16000000    69.35000000    40.64000000
   C     82.51000000    71.56000000    38.92000000
   C     83.49000000    72.37000000    38.08000000
   C     81.11000000    72.17000000    38.87000000
   C     84.93000000    71.85000000    38.01000000
   H     81.15000000    70.23000000    36.88000000
   H     83.51000000    69.67000000    38.50000000
   H     82.95000000    71.59000000    39.92000000
   H     83.57000000    73.34000000    38.57000000
   H     83.11000000    72.49000000    37.07000000
   H     80.56000000    71.86000000    37.98000000
   H     80.54000000    71.80000000    39.73000000
   H     81.19000000    73.26000000    38.91000000
   H     85.19000000    71.45000000    38.98000000
   H     84.98000000    71.11000000    37.20000000
   H     85.68000000    72.60000000    37.74000000
   N     80.66000000    68.58000000    39.14000000
   C     79.78000000    67.86000000    40.04000000
   C     79.04000000    68.88000000    40.91000000
   O     78.45000000    69.86000000    40.46000000
   C     78.75000000    66.99000000    39.33000000
   O     79.61000000    66.06000000    38.71000000
   H     80.35000000    68.58000000    38.18000000
   H     80.34000000    67.13000000    40.61000000
   H     78.11000000    67.53000000    38.62000000
   H     78.07000000    66.56000000    40.06000000
   H     79.10000000    65.24000000    38.69000000
   N     78.97000000    68.58000000    42.20000000
   C     78.33000000    69.35000000    43.25000000
   C     79.23000000    70.32000000    43.99000000
   O     80.44000000    70.27000000    43.82000000
   C     77.71000000    68.41000000    44.29000000
   H     79.57000000    67.84000000    42.54000000
   H     77.49000000    69.89000000    42.82000000
   H     77.17000000    67.67000000    43.69000000
   H     78.46000000    67.90000000    44.89000000
   H     77.04000000    69.01000000    44.91000000
   N     78.66000000    71.13000000    44.89000000
   C     79.32000000    72.15000000    45.67000000
   C     80.29000000    73.17000000    45.09000000
   O     81.04000000    73.79000000    45.84000000
   C     79.67000000    71.55000000    47.03000000
   H     77.66000000    71.08000000    45.00000000
   H     78.49000000    72.83000000    45.89000000
   H     80.74000000    71.36000000    46.96000000
   H     79.59000000    72.26000000    47.86000000
   H     79.09000000    70.65000000    47.26000000
   N     80.37000000    73.29000000    43.76000000
   C     81.16000000    74.31000000    43.09000000
   C     80.43000000    75.15000000    42.05000000
   O     81.04000000    75.75000000    41.17000000
   C     82.40000000    73.68000000    42.49000000
   C     83.53000000    73.26000000    43.43000000
   C     84.57000000    72.43000000    42.71000000
   O     85.10000000    72.79000000    41.64000000
   O     84.95000000    71.33000000    43.16000000
   H     79.89000000    72.63000000    43.16000000
   H     81.61000000    74.98000000    43.82000000
   H     82.84000000    74.36000000    41.76000000
   H     82.20000000    72.88000000    41.78000000
   H     83.13000000    72.67000000    44.26000000
   H     83.95000000    74.15000000    43.90000000
   N     79.10000000    75.30000000    42.13000000
   C     78.15000000    75.88000000    41.21000000
   H     77.27700000    76.22900000    41.76200000
   H     78.61200000    76.72000000    40.69200000
   H     77.84200000    75.12900000    40.48300000
   H     78.79000000    74.89000000    43.00000000
  Ca     87.29000000    71.26000000    41.84000000
   O     87.66000000    69.33000000    43.61000000
   H     87.06000000    69.45000000    44.34000000
   H     87.60000000    68.39000000    43.41000000

Ca 1.70



