%chk=Ng-31_loop3_52.0.chk
%nprocshared=48
%mem=10GB
%nosave
#b3lyp/svp scf=(tight,noincore) Test 
#IOP(5/87=12) Density=Current Pop=(MK,readradii) iop(6/33=2) iop(6/42=6)

Ng-31_loop3_52.0 

   0   1
   C      0.98400000    77.71000000    12.79000000
   C      2.20400000    77.11000000    13.49000000
   O      2.06400000    76.32000000    14.42000000
   H      0.18500000    77.85800000    13.51700000
   H      1.25400000    78.66900000    12.34700000
   H      0.64200000    77.03100000    12.00900000
   N      3.40400000    77.41000000    12.99000000
   C      4.65400000    76.92000000    13.54000000
   C      5.04400000    77.49000000    14.90000000
   O      5.11400000    76.78000000    15.90000000
   C      5.83400000    76.93000000    12.58000000
   C      6.18400000    78.31000000    12.04000000
   O      7.38400000    78.65000000    12.09000000
   O      5.26400000    79.07000000    11.69000000
   H      3.40400000    78.22000000    12.38000000
   H      4.40400000    75.90000000    13.84000000
   H      5.51400000    76.25000000    11.79000000
   H      6.70400000    76.44000000    13.02000000
   N      5.35400000    78.78000000    15.04000000
   C      5.89400000    79.38000000    16.24000000
   C      7.30400000    78.85000000    16.46000000
   O      8.18400000    78.87000000    15.60000000
   C      5.82400000    80.90000000    16.13000000
   C      5.83400000    81.65000000    17.46000000
   C      6.19400000    83.11000000    17.19000000
   C      6.24400000    84.05000000    18.38000000
   N      4.98400000    84.20000000    19.13000000
   H      5.40400000    79.31000000    14.18000000
   H      5.24400000    79.17000000    17.09000000
   H      4.95400000    81.25000000    15.58000000
   H      6.60400000    81.35000000    15.51000000
   H      6.63400000    81.19000000    18.04000000
   H      4.90400000    81.49000000    17.99000000
   H      5.41400000    83.49000000    16.53000000
   H      7.12400000    83.16000000    16.62000000
   H      6.55400000    85.01000000    17.95000000
   H      7.08400000    83.71000000    18.99000000
   H      5.09400000    84.67000000    20.02000000
   H      4.19400000    84.51000000    18.59000000
   H      4.82400000    83.28000000    19.51000000
   N      7.48400000    78.65000000    17.77000000
   C      8.66400000    78.02000000    18.33000000
   C      8.76400000    76.52000000    18.13000000
   O      9.87400000    76.02000000    18.34000000
   C      8.77400000    78.22000000    19.84000000
   C      7.52400000    77.68000000    20.54000000
   O      6.45400000    78.17000000    20.12000000
   O      7.53400000    77.21000000    21.70000000
   H      6.61400000    78.64000000    18.28000000
   H      9.55400000    78.43000000    17.85000000
   H      8.78400000    79.30000000    20.03000000
   H      9.69400000    77.78000000    20.22000000
   N      7.69400000    75.90000000    17.63000000
   C      7.73400000    74.60000000    17.00000000
   C      7.99400000    74.71000000    15.50000000
   O      8.69400000    75.57000000    14.98000000
   H      6.85400000    76.46000000    17.68000000
   H      6.73400000    74.18000000    17.05000000
   H      8.50400000    73.97000000    17.46000000
   N      7.36400000    73.85000000    14.70000000
   C      6.62400000    72.63000000    14.94000000
   C      5.48400000    72.53000000    13.92000000
   O      5.73400000    72.18000000    12.77000000
   C      7.55400000    71.42000000    14.85000000
   C      8.53400000    71.50000000    16.01000000
   N      8.28400000    70.67000000    17.03000000
   O      9.52400000    72.22000000    16.04000000
   H      7.62400000    73.94000000    13.73000000
   H      6.26400000    72.57000000    15.96000000
   H      8.10400000    71.39000000    13.90000000
   H      7.09400000    70.44000000    14.90000000
   H      7.45400000    70.09000000    16.95000000
   H      8.92400000    70.62000000    17.80000000
   N      4.23400000    72.87000000    14.25000000
   C      3.73400000    73.59000000    15.40000000
   C      3.41400000    72.91000000    16.73000000
   O      3.17400000    73.57000000    17.73000000
   H      3.57400000    72.54000000    13.56000000
   H      2.93400000    74.20000000    15.00000000
   H      4.52400000    74.33000000    15.56000000
   N      3.42400000    71.58000000    16.61000000
   C      3.17400000    70.71000000    17.74000000
   C      4.41400000    70.54000000    18.62000000
   O      5.46400000    70.22000000    18.07000000
   C      2.80400000    69.34000000    17.18000000
   C      1.60400000    69.32000000    16.27000000
   C      0.41400000    69.99000000    16.59000000
   C      1.64400000    68.49000000    15.13000000
   C     -0.72600000    69.80000000    15.80000000
   C      0.49400000    68.30000000    14.35000000
   C     -0.72600000    68.91000000    14.71000000
   O     -1.86600000    68.75000000    13.98000000
   H      3.62400000    71.12000000    15.73000000
   H      2.34400000    71.11000000    18.32000000
   H      2.43400000    68.86000000    18.09000000
   H      3.67400000    68.86000000    16.73000000
   H      0.29400000    70.64000000    17.44000000
   H      2.54400000    67.97000000    14.86000000
   H     -1.59600000    70.39000000    16.03000000
   H      0.56400000    67.57000000    13.56000000
   H     -1.64600000    68.07000000    13.34000000
   N      4.34400000    70.83000000    19.92000000
   C      5.49400000    70.83000000    20.80000000
   C      5.17400000    70.26000000    22.17000000
   O      6.12400000    69.66000000    22.67000000
   C      6.03400000    72.24000000    21.02000000
   C      7.46400000    72.28000000    21.57000000
   C      5.86400000    73.14000000    19.80000000
   C      7.97400000    73.69000000    21.85000000
   H      3.43400000    71.11000000    20.25000000
   H      6.32400000    70.32000000    20.30000000
   H      5.37400000    72.68000000    21.77000000
   H      8.14400000    71.84000000    20.84000000
   H      7.58400000    71.56000000    22.38000000
   H      4.82400000    73.31000000    19.52000000
   H      6.24400000    74.13000000    20.04000000
   H      6.20400000    72.63000000    18.89000000
   H      9.01400000    73.56000000    22.16000000
   H      7.87400000    74.34000000    20.98000000
   H      7.39400000    74.18000000    22.63000000
   N      4.00400000    70.52000000    22.76000000
   C      3.58400000    70.13000000    24.08000000
   C      2.47400000    70.97000000    24.69000000
   O      1.45400000    71.24000000    24.05000000
   C      3.15400000    68.66000000    24.05000000
   O      4.13400000    67.67000000    23.81000000
   H      3.26400000    70.67000000    22.09000000
   H      4.46400000    70.18000000    24.72000000
   H      2.37400000    68.56000000    23.30000000
   H      2.77400000    68.42000000    25.04000000
   H      4.81400000    67.84000000    24.47000000
   N      2.64400000    71.36000000    25.96000000
   C      1.68400000    72.25000000    26.57000000
   C      1.58400000    73.64000000    25.96000000
   O      2.52400000    74.28000000    25.50000000
   C      1.97400000    72.43000000    28.05000000
   H      3.58400000    71.14000000    26.27000000
   H      0.67400000    71.81000000    26.57000000
   H      3.02400000    72.70000000    28.13000000
   H      1.33400000    73.16000000    28.55000000
   H      1.85400000    71.44000000    28.51000000
   N      0.31400000    74.04000000    25.94000000
   C     -0.16600000    75.33000000    25.46000000
   C      0.25400000    75.74000000    24.06000000
   O      0.30400000    76.93000000    23.76000000
   C      0.11400000    76.36000000    26.55000000
   H     -0.40600000    73.42000000    26.26000000
   H     -1.24600000    75.22000000    25.35000000
   H     -0.55600000    77.21000000    26.39000000
   H     -0.12600000    75.99000000    27.55000000
   H      1.16400000    76.66000000    26.52000000
   N      0.47400000    74.81000000    23.12000000
   C      0.63400000    75.12000000    21.72000000
   C     -0.65600000    75.44000000    20.97000000
   O     -0.68600000    76.20000000    20.00000000
   C      1.38400000    73.96000000    21.06000000
   C      2.80400000    73.73000000    21.57000000
   C      3.74400000    74.93000000    21.66000000
   O      3.60400000    75.92000000    20.91000000
   O      4.57400000    74.99000000    22.58000000
   H      0.33400000    73.84000000    23.37000000
   H      1.16400000    76.05000000    21.53000000
   H      1.51400000    74.25000000    20.02000000
   H      0.81400000    73.03000000    21.10000000
   H      3.28400000    73.07000000    20.84000000
   H      2.73400000    73.27000000    22.55000000
   N     -1.75600000    74.85000000    21.44000000
   C     -3.09600000    74.92000000    20.89000000
   H     -3.74100000    75.47200000    21.57400000
   H     -3.06800000    75.43000000    19.92700000
   H     -3.48800000    73.91200000    20.75700000
   H     -1.63600000    74.27000000    22.26000000
  Ca      4.89000000    77.64000000    22.25000000
   O      3.48000000    77.37000000    24.51000000
   H      2.99000000    76.54000000    24.59000000
   H      3.13000000    77.91000000    25.22000000

Ca 1.70



