%chk=Ng-31_loop3_21.0.chk
%nprocshared=48
%mem=10GB
%nosave
#b3lyp/svp scf=(tight,noincore) Test 
#IOP(5/87=12) Density=Current Pop=(MK,readradii) iop(6/33=2) iop(6/42=6)

Ng-31_loop3_21.0 

   0   1
   C     70.58000000    58.04000000    37.82000000
   C     70.81000000    56.97000000    38.89000000
   O     69.89000000    56.21000000    39.16000000
   H     69.79200000    58.71800000    38.14800000
   H     71.50100000    58.60200000    37.66400000
   H     70.28200000    57.56300000    36.88600000
   N     72.04000000    56.79000000    39.37000000
   C     72.29000000    55.60000000    40.16000000
   C     71.52000000    55.55000000    41.47000000
   O     70.99000000    54.51000000    41.87000000
   C     73.77000000    55.28000000    40.34000000
   C     74.67000000    56.44000000    40.74000000
   O     75.81000000    56.42000000    40.24000000
   O     74.27000000    57.35000000    41.50000000
   H     72.81000000    57.37000000    39.07000000
   H     71.87000000    54.75000000    39.63000000
   H     74.11000000    55.00000000    39.34000000
   H     73.94000000    54.42000000    41.00000000
   N     71.39000000    56.73000000    42.08000000
   C     70.64000000    57.01000000    43.29000000
   C     71.21000000    56.16000000    44.43000000
   O     72.41000000    56.23000000    44.65000000
   C     70.43000000    58.47000000    43.64000000
   C     69.37000000    59.09000000    42.73000000
   C     68.93000000    60.49000000    43.16000000
   C     70.09000000    61.46000000    43.02000000
   N     69.70000000    62.88000000    43.11000000
   H     71.94000000    57.49000000    41.72000000
   H     69.63000000    56.65000000    43.10000000
   H     71.36000000    58.96000000    43.36000000
   H     70.31000000    58.69000000    44.71000000
   H     68.44000000    58.54000000    42.80000000
   H     69.73000000    59.18000000    41.70000000
   H     68.67000000    60.45000000    44.22000000
   H     68.03000000    60.69000000    42.58000000
   H     70.62000000    61.31000000    42.08000000
   H     70.74000000    61.33000000    43.88000000
   H     69.19000000    63.13000000    42.27000000
   H     69.08000000    63.01000000    43.89000000
   H     70.49000000    63.50000000    43.20000000
   N     70.44000000    55.28000000    45.07000000
   C     70.79000000    54.39000000    46.15000000
   C     71.15000000    53.02000000    45.59000000
   O     71.39000000    52.13000000    46.39000000
   C     69.64000000    54.36000000    47.16000000
   C     69.02000000    55.70000000    47.53000000
   O     69.69000000    56.74000000    47.37000000
   O     67.92000000    55.70000000    48.12000000
   H     69.46000000    55.44000000    44.88000000
   H     71.72000000    54.77000000    46.59000000
   H     70.10000000    53.90000000    48.04000000
   H     68.82000000    53.75000000    46.79000000
   N     71.08000000    52.72000000    44.29000000
   C     71.42000000    51.41000000    43.76000000
   C     72.92000000    51.17000000    43.79000000
   O     73.68000000    52.13000000    43.86000000
   H     70.94000000    53.42000000    43.58000000
   H     71.11000000    51.42000000    42.72000000
   H     70.88000000    50.60000000    44.26000000
   N     73.47000000    50.00000000    43.46000000
   C     72.87000000    48.69000000    43.38000000
   C     73.45000000    48.02000000    42.14000000
   O     74.12000000    47.00000000    42.26000000
   C     73.04000000    47.98000000    44.72000000
   C     72.57000000    46.53000000    44.67000000
   N     71.35000000    46.19000000    44.27000000
   O     73.34000000    45.63000000    44.99000000
   H     74.48000000    50.05000000    43.38000000
   H     71.79000000    48.83000000    43.27000000
   H     72.49000000    48.57000000    45.46000000
   H     74.09000000    47.93000000    45.04000000
   H     70.73000000    46.88000000    43.87000000
   H     71.15000000    45.21000000    44.44000000
   N     73.10000000    48.36000000    40.90000000
   C     72.37000000    49.55000000    40.48000000
   C     70.88000000    49.33000000    40.27000000
   O     70.00000000    50.15000000    40.05000000
   H     73.52000000    47.78000000    40.19000000
   H     72.82000000    49.97000000    39.59000000
   H     72.47000000    50.28000000    41.29000000
   N     70.49000000    48.07000000    40.51000000
   C     69.09000000    47.74000000    40.64000000
   C     68.54000000    48.28000000    41.95000000
   O     69.29000000    48.46000000    42.91000000
   C     68.84000000    46.24000000    40.51000000
   C     68.89000000    45.81000000    39.06000000
   C     67.80000000    46.03000000    38.21000000
   C     69.96000000    45.03000000    38.60000000
   C     67.78000000    45.61000000    36.88000000
   C     69.93000000    44.51000000    37.30000000
   C     68.87000000    44.84000000    36.43000000
   O     68.89000000    44.23000000    35.21000000
   H     71.20000000    47.42000000    40.81000000
   H     68.45000000    48.17000000    39.86000000
   H     67.90000000    46.08000000    41.05000000
   H     69.65000000    45.71000000    41.00000000
   H     66.97000000    46.50000000    38.71000000
   H     70.69000000    44.72000000    39.33000000
   H     66.90000000    45.87000000    36.30000000
   H     70.75000000    43.87000000    37.01000000
   H     69.62000000    43.61000000    35.12000000
   N     67.22000000    48.52000000    41.99000000
   C     66.60000000    49.17000000    43.13000000
   C     65.47000000    48.32000000    43.67000000
   O     64.84000000    47.59000000    42.91000000
   C     66.22000000    50.63000000    42.91000000
   C     67.36000000    51.65000000    43.02000000
   C     65.51000000    50.72000000    41.56000000
   C     67.63000000    51.89000000    44.50000000
   H     66.59000000    48.40000000    41.22000000
   H     67.23000000    49.19000000    44.01000000
   H     65.47000000    50.84000000    43.67000000
   H     67.04000000    52.61000000    42.61000000
   H     68.23000000    51.23000000    42.52000000
   H     64.96000000    51.66000000    41.64000000
   H     66.28000000    50.73000000    40.79000000
   H     64.75000000    49.95000000    41.58000000
   H     68.02000000    50.95000000    44.88000000
   H     68.41000000    52.64000000    44.61000000
   H     66.76000000    52.24000000    45.06000000
   N     65.22000000    48.48000000    44.98000000
   C     64.20000000    47.91000000    45.83000000
   C     62.80000000    48.46000000    45.58000000
   O     62.55000000    49.12000000    44.57000000
   C     64.29000000    46.38000000    45.84000000
   O     65.59000000    45.99000000    46.20000000
   H     65.80000000    49.12000000    45.49000000
   H     64.50000000    48.14000000    46.85000000
   H     64.03000000    45.94000000    44.88000000
   H     63.57000000    45.99000000    46.57000000
   H     65.45000000    45.07000000    46.41000000
   N     61.98000000    48.23000000    46.61000000
   C     60.67000000    48.84000000    46.76000000
   C     60.75000000    50.17000000    47.50000000
   O     61.68000000    50.43000000    48.26000000
   C     59.82000000    47.84000000    47.54000000
   H     62.25000000    47.57000000    47.32000000
   H     60.26000000    48.95000000    45.75000000
   H     60.29000000    47.67000000    48.50000000
   H     58.88000000    48.31000000    47.85000000
   H     59.65000000    46.95000000    46.94000000
   N     59.80000000    51.07000000    47.23000000
   C     59.68000000    52.39000000    47.82000000
   C     60.74000000    53.35000000    47.31000000
   O     61.04000000    54.39000000    47.91000000
   C     59.44000000    52.36000000    49.33000000
   H     59.01000000    50.73000000    46.71000000
   H     58.77000000    52.74000000    47.35000000
   H     58.45000000    51.98000000    49.59000000
   H     60.19000000    51.81000000    49.89000000
   H     59.44000000    53.41000000    49.64000000
   N     61.20000000    53.09000000    46.08000000
   C     62.07000000    53.96000000    45.32000000
   C     61.23000000    54.62000000    44.23000000
   O     60.96000000    55.82000000    44.28000000
   C     63.21000000    53.07000000    44.83000000
   C     64.49000000    53.91000000    44.87000000
   C     64.95000000    54.08000000    46.31000000
   O     64.82000000    53.29000000    47.27000000
   O     65.44000000    55.19000000    46.63000000
   H     60.77000000    52.36000000    45.54000000
   H     62.46000000    54.75000000    45.96000000
   H     63.08000000    52.67000000    43.83000000
   H     63.47000000    52.24000000    45.48000000
   H     64.22000000    54.87000000    44.44000000
   H     65.17000000    53.35000000    44.23000000
   N     60.59000000    53.80000000    43.40000000
   C     59.57000000    54.14000000    42.43000000
   H     58.72000000    54.59300000    42.94100000
   H     59.97700000    54.84600000    41.70600000
   H     59.24400000    53.23700000    41.91400000
   H     60.85000000    52.83000000    43.42000000
  Ca     65.99000000    54.56000000    49.27000000
   O     63.36000000    54.57000000    49.48000000
   H     62.86000000    54.61000000    50.30000000
   H     62.75000000    54.20000000    48.84000000

Ca 1.70



