%chk=Ng-31_loop3_40.0.chk
%nprocshared=48
%mem=10GB
%nosave
#b3lyp/svp scf=(tight,noincore) Test 
#IOP(5/87=12) Density=Current Pop=(MK,readradii) iop(6/33=2) iop(6/42=6)

Ng-31_loop3_40.0 

   0   1
   C     83.82000000    76.77000000    23.89000000
   C     85.28000000    76.34000000    23.82000000
   O     85.73000000    75.45000000    24.55000000
   H     83.21300000    75.93600000    24.24200000
   H     83.72000000    77.60800000    24.58000000
   H     83.48200000    77.07200000    22.89900000
   N     86.08000000    77.19000000    23.18000000
   C     87.53000000    77.15000000    23.09000000
   C     88.27000000    77.59000000    24.35000000
   O     88.43000000    76.70000000    25.18000000
   C     87.96000000    78.00000000    21.91000000
   C     87.25000000    79.33000000    21.69000000
   O     86.14000000    79.33000000    21.11000000
   O     87.77000000    80.39000000    22.10000000
   H     85.61000000    77.88000000    22.63000000
   H     87.87000000    76.12000000    22.96000000
   H     87.93000000    77.43000000    20.98000000
   H     89.02000000    78.13000000    22.13000000
   N     88.62000000    78.85000000    24.59000000
   C     89.42000000    79.20000000    25.75000000
   C     90.77000000    78.52000000    25.85000000
   O     91.77000000    79.02000000    25.34000000
   C     89.57000000    80.72000000    25.73000000
   C     90.18000000    81.21000000    27.04000000
   C     90.36000000    82.73000000    26.98000000
   C     90.96000000    83.24000000    28.28000000
   N     91.19000000    84.69000000    28.20000000
   H     88.52000000    79.50000000    23.82000000
   H     88.84000000    79.00000000    26.65000000
   H     88.59000000    81.19000000    25.69000000
   H     90.18000000    81.02000000    24.88000000
   H     91.18000000    80.79000000    27.15000000
   H     89.55000000    80.87000000    27.86000000
   H     89.46000000    83.28000000    26.71000000
   H     91.05000000    82.88000000    26.15000000
   H     91.85000000    82.65000000    28.48000000
   H     90.26000000    83.00000000    29.08000000
   H     91.24000000    85.06000000    29.14000000
   H     92.04000000    84.94000000    27.71000000
   H     90.39000000    85.16000000    27.80000000
   N     90.77000000    77.33000000    26.46000000
   C     91.96000000    76.54000000    26.70000000
   C     92.43000000    75.57000000    25.62000000
   O     93.65000000    75.39000000    25.58000000
   C     91.81000000    75.75000000    27.99000000
   C     90.61000000    74.83000000    28.13000000
   O     90.63000000    73.93000000    29.00000000
   O     89.57000000    74.96000000    27.44000000
   H     89.88000000    76.88000000    26.60000000
   H     92.80000000    77.24000000    26.76000000
   H     91.76000000    76.54000000    28.74000000
   H     92.73000000    75.16000000    28.08000000
   N     91.56000000    74.98000000    24.80000000
   C     91.94000000    74.12000000    23.70000000
   C     92.39000000    74.91000000    22.47000000
   O     92.29000000    76.13000000    22.40000000
   H     90.60000000    75.24000000    24.97000000
   H     91.11000000    73.45000000    23.52000000
   H     92.78000000    73.54000000    24.07000000
   N     92.96000000    74.28000000    21.44000000
   C     93.30000000    72.87000000    21.39000000
   C     92.00000000    72.07000000    21.44000000
   O     91.05000000    72.44000000    20.75000000
   C     93.96000000    72.69000000    20.03000000
   C     93.80000000    71.24000000    19.60000000
   N     93.02000000    71.02000000    18.55000000
   O     94.33000000    70.32000000    20.23000000
   H     93.24000000    74.86000000    20.67000000
   H     93.99000000    72.52000000    22.15000000
   H     95.04000000    72.85000000    20.05000000
   H     93.35000000    73.26000000    19.33000000
   H     92.70000000    71.84000000    18.06000000
   H     93.05000000    70.16000000    18.02000000
   N     91.77000000    71.02000000    22.22000000
   C     92.60000000    70.45000000    23.27000000
   C     91.74000000    69.91000000    24.40000000
   O     90.78000000    70.61000000    24.73000000
   H     90.80000000    70.75000000    22.26000000
   H     93.39000000    71.12000000    23.61000000
   H     93.14000000    69.56000000    22.93000000
   N     92.02000000    68.73000000    24.96000000
   C     91.46000000    68.21000000    26.19000000
   C     92.50000000    68.13000000    27.30000000
   O     93.58000000    67.56000000    27.13000000
   C     90.83000000    66.85000000    25.90000000
   C     89.67000000    66.82000000    24.94000000
   C     88.46000000    67.46000000    25.22000000
   C     89.85000000    66.20000000    23.70000000
   C     87.42000000    67.41000000    24.28000000
   C     88.82000000    66.18000000    22.75000000
   C     87.60000000    66.85000000    22.99000000
   O     86.65000000    66.96000000    22.02000000
   H     92.81000000    68.20000000    24.61000000
   H     90.62000000    68.87000000    26.42000000
   H     90.57000000    66.45000000    26.88000000
   H     91.66000000    66.23000000    25.56000000
   H     88.29000000    68.02000000    26.13000000
   H     90.80000000    65.75000000    23.43000000
   H     86.50000000    67.89000000    24.55000000
   H     89.05000000    65.80000000    21.77000000
   H     87.03000000    66.65000000    21.20000000
   N     92.19000000    68.71000000    28.45000000
   C     92.92000000    68.62000000    29.70000000
   C     92.79000000    67.27000000    30.38000000
   O     93.68000000    66.69000000    31.01000000
   C     92.60000000    69.78000000    30.63000000
   C     91.24000000    69.74000000    31.33000000
   C     93.73000000    69.85000000    31.65000000
   C     90.78000000    71.16000000    31.66000000
   H     91.25000000    69.07000000    28.55000000
   H     93.97000000    68.66000000    29.39000000
   H     92.65000000    70.74000000    30.10000000
   H     91.36000000    69.17000000    32.25000000
   H     90.53000000    69.24000000    30.67000000
   H     94.72000000    69.74000000    31.20000000
   H     93.77000000    70.79000000    32.19000000
   H     93.62000000    69.01000000    32.34000000
   H     91.43000000    71.61000000    32.41000000
   H     90.90000000    71.74000000    30.74000000
   H     89.75000000    71.30000000    32.00000000
   N     91.68000000    66.58000000    30.12000000
   C     91.38000000    65.22000000    30.54000000
   C     90.33000000    65.03000000    31.62000000
   O     89.93000000    63.92000000    31.97000000
   C     91.16000000    64.43000000    29.26000000
   O     92.35000000    64.24000000    28.52000000
   H     91.07000000    67.06000000    29.48000000
   H     92.27000000    64.86000000    31.05000000
   H     90.44000000    64.97000000    28.65000000
   H     90.69000000    63.46000000    29.45000000
   H     92.12000000    63.72000000    27.74000000
   N     89.90000000    66.17000000    32.17000000
   C     88.67000000    66.23000000    32.93000000
   C     87.66000000    67.22000000    32.38000000
   O     87.94000000    68.24000000    31.77000000
   C     88.97000000    66.66000000    34.36000000
   H     90.39000000    67.03000000    31.96000000
   H     88.25000000    65.23000000    32.92000000
   H     89.65000000    65.92000000    34.80000000
   H     89.58000000    67.56000000    34.28000000
   H     88.09000000    66.84000000    34.98000000
   N     86.37000000    66.91000000    32.58000000
   C     85.13000000    67.57000000    32.21000000
   C     85.30000000    68.83000000    31.37000000
   O     85.24000000    69.97000000    31.83000000
   C     84.30000000    67.81000000    33.47000000
   H     86.32000000    66.01000000    33.04000000
   H     84.65000000    66.94000000    31.46000000
   H     84.20000000    66.88000000    34.03000000
   H     84.85000000    68.58000000    34.01000000
   H     83.33000000    68.15000000    33.11000000
   N     85.63000000    68.69000000    30.09000000
   C     85.31000000    69.70000000    29.10000000
   C     84.05000000    69.23000000    28.40000000
   O     83.19000000    70.05000000    28.07000000
   C     86.45000000    69.78000000    28.08000000
   C     87.63000000    70.47000000    28.75000000
   C     87.69000000    71.98000000    28.91000000
   O     87.64000000    72.69000000    27.89000000
   O     87.61000000    72.47000000    30.06000000
   H     85.75000000    67.73000000    29.78000000
   H     85.07000000    70.67000000    29.53000000
   H     86.11000000    70.45000000    27.29000000
   H     86.82000000    68.81000000    27.75000000
   H     88.55000000    70.31000000    28.19000000
   H     87.90000000    69.86000000    29.62000000
   N     83.90000000    67.91000000    28.29000000
   C     82.67000000    67.25000000    27.93000000
   H     81.91000000    67.99800000    27.70400000
   H     82.83600000    66.62400000    27.05300000
   H     82.33300000    66.63000000    28.76100000
   H     84.63000000    67.34000000    28.71000000
  Ca     87.25000000    74.74000000    26.58000000
   O     86.12000000    72.65000000    25.41000000
   H     85.23000000    72.49000000    25.10000000
   H     86.60000000    71.86000000    25.16000000

Ca 1.70



