%chk=Ng-31_loop3_5.0.chk
%nprocshared=48
%mem=10GB
%nosave
#b3lyp/svp scf=(tight,noincore) Test 
#IOP(5/87=12) Density=Current Pop=(MK,readradii) iop(6/33=2) iop(6/42=6)

Ng-31_loop3_5.0 

   0   1
   C      0.73300000    47.09000000   102.84000000
   C      1.76300000    47.93000000   102.09000000
   O      2.03300000    47.78000000   100.90000000
   H     -0.19200000    47.05100000   102.26400000
   H      1.11800000    46.08000000   102.97800000
   H      0.53600000    47.54000000   103.81300000
   N      2.18300000    49.00000000   102.78000000
   C      2.77300000    50.23000000   102.28000000
   C      4.22300000    50.28000000   102.75000000
   O      4.56300000    49.75000000   103.81000000
   C      1.87300000    51.36000000   102.76000000
   C      1.62300000    51.38000000   104.26000000
   O      2.42300000    51.99000000   105.01000000
   O      0.65300000    50.73000000   104.70000000
   H      1.90300000    49.13000000   103.74000000
   H      2.82300000    50.24000000   101.19000000
   H      0.95300000    51.36000000   102.18000000
   H      2.31300000    52.33000000   102.52000000
   N      5.03300000    51.07000000   102.05000000
   C      6.39300000    51.41000000   102.44000000
   C      7.50300000    50.43000000   102.12000000
   O      8.54300000    50.39000000   102.77000000
   C      6.63300000    52.84000000   101.96000000
   C      5.58300000    53.87000000   102.39000000
   C      5.17300000    53.87000000   103.85000000
   C      4.07300000    54.87000000   104.21000000
   N      3.45300000    54.54000000   105.50000000
   H      4.73300000    51.40000000   101.15000000
   H      6.45300000    51.48000000   103.53000000
   H      6.63300000    52.95000000   100.88000000
   H      7.57300000    53.24000000   102.34000000
   H      4.76300000    53.78000000   101.68000000
   H      6.03300000    54.85000000   102.25000000
   H      6.11300000    54.02000000   104.38000000
   H      4.63300000    52.94000000   104.04000000
   H      3.28300000    54.87000000   103.46000000
   H      4.39300000    55.92000000   104.27000000
   H      2.97300000    55.30000000   105.95000000
   H      2.70300000    53.89000000   105.33000000
   H      4.05300000    54.00000000   106.12000000
   N      7.19300000    49.48000000   101.24000000
   C      8.02300000    48.33000000   100.91000000
   C      8.44300000    48.37000000    99.45000000
   O      9.28300000    47.57000000    99.05000000
   C      7.21300000    47.05000000   101.10000000
   C      5.93300000    47.03000000   100.29000000
   O      5.44300000    45.95000000    99.88000000
   O      5.46300000    48.09000000    99.83000000
   H      6.30300000    49.54000000   100.76000000
   H      8.93300000    48.24000000   101.49000000
   H      6.96300000    46.96000000   102.16000000
   H      7.84300000    46.18000000   100.91000000
   N      7.81300000    49.22000000    98.64000000
   C      7.91300000    49.19000000    97.19000000
   C      6.82300000    50.09000000    96.61000000
   O      6.00300000    50.69000000    97.29000000
   H      6.99300000    49.63000000    99.07000000
   H      7.70300000    48.18000000    96.84000000
   H      8.92300000    49.47000000    96.91000000
   N      6.67300000    50.19000000    95.29000000
   C      7.43300000    49.46000000    94.29000000
   C      6.51300000    48.80000000    93.27000000
   O      5.45300000    49.35000000    92.95000000
   C      8.42300000    50.36000000    93.55000000
   C      9.35300000    51.20000000    94.43000000
   N      8.98300000    52.36000000    94.97000000
   O     10.48300000    50.81000000    94.70000000
   H      5.90300000    50.75000000    94.96000000
   H      8.08300000    48.67000000    94.66000000
   H      7.92300000    51.15000000    93.00000000
   H      8.97300000    49.73000000    92.85000000
   H      8.04300000    52.71000000    94.95000000
   H      9.60300000    52.89000000    95.57000000
   N      6.80300000    47.63000000    92.69000000
   C      8.00300000    46.85000000    92.88000000
   C      7.75300000    45.94000000    94.08000000
   O      6.98300000    46.33000000    94.96000000
   H      6.05300000    47.26000000    92.12000000
   H      8.85300000    47.51000000    93.06000000
   H      8.21300000    46.30000000    91.96000000
   N      8.32300000    44.73000000    94.06000000
   C      7.88300000    43.57000000    94.80000000
   C      9.06300000    42.78000000    95.36000000
   O     10.10300000    42.66000000    94.71000000
   C      7.04300000    42.68000000    93.89000000
   C      5.72300000    43.30000000    93.49000000
   C      4.73300000    43.48000000    94.47000000
   C      5.51300000    43.89000000    92.24000000
   C      3.52300000    44.12000000    94.21000000
   C      4.31300000    44.57000000    92.00000000
   C      3.30300000    44.74000000    92.96000000
   O      2.06300000    45.24000000    92.67000000
   H      8.91300000    44.47000000    93.29000000
   H      7.21300000    43.96000000    95.57000000
   H      6.72300000    41.91000000    94.59000000
   H      7.58300000    42.23000000    93.06000000
   H      4.83300000    43.00000000    95.44000000
   H      6.27300000    43.82000000    91.47000000
   H      2.72300000    44.08000000    94.93000000
   H      4.15300000    44.92000000    90.99000000
   H      1.89300000    45.49000000    91.76000000
   N      8.84300000    42.16000000    96.52000000
   C      9.70300000    41.13000000    97.06000000
   C      9.40300000    39.76000000    96.46000000
   O     10.40300000    39.14000000    96.08000000
   C      9.46300000    41.09000000    98.56000000
   C     10.43300000    40.15000000    99.29000000
   C      9.71300000    42.48000000    99.13000000
   C      9.83300000    38.78000000    99.59000000
   H      8.00300000    42.27000000    97.06000000
   H     10.73300000    41.48000000    96.94000000
   H      8.43300000    40.91000000    98.87000000
   H     10.67300000    40.60000000   100.25000000
   H     11.39300000    40.07000000    98.79000000
   H     10.79300000    42.61000000    99.06000000
   H      9.24300000    43.32000000    98.62000000
   H      9.38300000    42.52000000   100.17000000
   H      9.69300000    38.23000000    98.66000000
   H     10.55300000    38.22000000   100.18000000
   H      8.90300000    38.96000000   100.14000000
   N      8.15300000    39.32000000    96.29000000
   C      7.62300000    38.12000000    95.67000000
   C      7.33300000    36.98000000    96.63000000
   O      7.22300000    35.84000000    96.17000000
   C      6.33300000    38.44000000    94.92000000
   O      5.33300000    38.83000000    95.83000000
   H      7.47300000    40.04000000    96.50000000
   H      8.27300000    37.75000000    94.88000000
   H      6.12300000    37.50000000    94.41000000
   H      6.42300000    39.24000000    94.19000000
   H      5.58300000    39.67000000    96.21000000
   N      7.17300000    37.16000000    97.94000000
   C      6.72300000    36.19000000    98.91000000
   C      5.73300000    36.74000000    99.93000000
   O      6.14300000    37.72000000   100.55000000
   C      7.89300000    35.51000000    99.62000000
   H      7.37300000    38.08000000    98.31000000
   H      6.21300000    35.37000000    98.41000000
   H      8.34300000    36.29000000   100.23000000
   H      7.64300000    34.63000000   100.21000000
   H      8.59300000    35.15000000    98.86000000
   N      4.58300000    36.08000000   100.02000000
   C      3.54300000    36.23000000   101.02000000
   C      3.08300000    37.68000000   101.02000000
   O      2.59300000    38.17000000   102.03000000
   C      3.96300000    35.70000000   102.39000000
   H      4.44300000    35.37000000    99.31000000
   H      2.67300000    35.63000000   100.75000000
   H      4.46300000    34.75000000   102.20000000
   H      4.64300000    36.42000000   102.83000000
   H      3.05300000    35.56000000   102.96000000
   N      3.12300000    38.40000000    99.89000000
   C      2.60300000    39.73000000    99.68000000
   C      1.16300000    39.67000000    99.21000000
   O      0.31300000    40.34000000    99.79000000
   C      3.40300000    40.50000000    98.63000000
   C      4.85300000    40.70000000    99.05000000
   C      5.49300000    41.54000000    97.95000000
   O      5.08300000    42.72000000    97.88000000
   O      6.25300000    41.04000000    97.09000000
   H      3.43300000    37.88000000    99.08000000
   H      2.58300000    40.25000000   100.64000000
   H      2.94300000    41.48000000    98.50000000
   H      3.33300000    39.95000000    97.69000000
   H      5.37300000    39.74000000    99.13000000
   H      4.93300000    41.16000000   100.03000000
   N      0.92300000    38.71000000    98.32000000
   C     -0.40700000    38.48000000    97.80000000
   H     -1.06400000    39.29200000    98.11200000
   H     -0.37000000    38.44100000    96.71100000
   H     -0.79000000    37.53500000    98.18500000
   H      1.72300000    38.20000000    97.96000000
  Ca      3.27000000    47.09000000    98.76000000
   O      3.39000000    44.76000000    97.62000000
   H      2.68000000    44.13000000    97.47000000
   H      4.19000000    44.26000000    97.51000000

Ca 1.70



