%chk=loop3.cluster203.chk
%nprocshared=48
%mem=10GB
%nosave
#b3lyp/svp scf=(tight,noincore) Test 
#IOP(5/87=12) Density=Current Pop=(MK,readradii) iop(6/33=2) iop(6/42=6)

loop3.cluster203 

   0  1 
C         38.84334        3.75941       11.10795
C         37.57901        4.35559       10.55856
O         36.58581        3.65070       10.45414
H         39.66461        4.50571       11.16204
H         38.67870        3.31940       12.11135
H         39.16585        2.95690       10.40865
N         37.57324        5.63251       10.08586
C         36.48429        6.13113        9.24731
C         35.22430        6.51233       10.01259
O         35.18702        6.44227       11.23410
C         37.01076        7.26605        8.33893
C         38.10414        6.78426        7.40817
O         38.44134        5.47836        7.34710
O         38.67197        7.58145        6.68064
H         38.44909        6.17772       10.14158
H         36.17256        5.31066        8.56367
H         37.39413        8.09266        8.97358
H         36.20420        7.66799        7.69223
N         34.11268        6.85922        9.29205
C         32.76081        7.05282        9.81111
C         32.54358        8.24966       10.73659
O         31.40645        8.46753       11.12823
C         32.21761        5.75632       10.44925
C         32.33347        4.53474        9.50673
C         31.67182        3.28559       10.11139
C         30.13190        3.34644       10.07040
N         29.54869        2.28512       10.88853
H         34.20415        6.89100        8.26657
H         32.11152        7.25278        8.92948
H         31.15434        5.93799       10.69957
H         32.75391        5.53259       11.39734
H         33.41520        4.31941        9.36721
H         31.89196        4.74398        8.50764
H         32.03810        3.17232       11.15397
H         31.98287        2.38294        9.53987
H         29.79119        3.24629        9.01364
H         29.75021        4.31247       10.45288
H         29.82964        2.42859       11.88663
H         28.50607        2.33909       10.82917
H         29.86832        1.34509       10.56278
N         33.56033        9.07272       11.12531
C         33.34987       10.15695       12.08442
C         34.28947       11.30715       11.78517
O         35.47255       11.08256       11.57904
C         33.52353        9.60074       13.50604
C         33.26267       10.62333       14.57521
O         32.21029       10.61153       15.19154
O         34.24821       11.44440       14.96844
H         34.51976        8.87113       10.82278
H         32.30369       10.53674       12.02062
H         34.53258        9.16360       13.65245
H         32.77667        8.78709       13.63155
N         33.81643       12.58653       11.79076
C         34.63998       13.73073       11.45059
C         35.02236       14.53370       12.67225
O         34.20022       14.78002       13.54071
H         32.83703       12.76278       12.05547
H         34.08564       14.36875       10.73428
H         35.56579       13.41291       10.92254
N         36.31248       14.94612       12.78462
C         36.87131       15.68044       13.91526
C         37.60447       16.93216       13.41679
O         37.44857       17.98283       14.02658
C         37.79434       14.71694       14.66579
C         36.99122       13.53598       15.16847
N         37.18220       12.30409       14.64190
O         36.14535       13.70139       16.03560
H         36.95439       14.66242       12.03813
H         36.08196       15.99863       14.63691
H         38.27865       15.21123       15.53481
H         38.58494       14.37150       13.96787
H         37.85692       12.15903       13.87904
H         36.63950       11.49831       14.98000
N         38.32014       16.92317       12.24401
C         38.80188       18.13713       11.60653
C         40.02847       18.67325       12.26972
O         41.05733       18.01369       12.24343
H         38.41877       16.05557       11.70528
H         37.97886       18.88351       11.58702
H         39.07691       17.92203       10.55220
N         39.98338       19.86940       12.91621
C         41.11310       20.41558       13.64947
C         41.61791       19.45399       14.71360
O         42.76777       19.56746       15.10969
C         42.23720       20.92893       12.71820
C         41.78823       21.99117       11.73218
C         42.18020       21.90459       10.38495
C         41.02021       23.09774       12.14948
C         41.82161       22.90755        9.47755
C         40.64507       24.08435       11.23492
C         41.05278       23.99742        9.89793
O         40.71784       24.95970        9.01452
H         39.09092       20.38430       12.95344
H         40.75145       21.29564       14.21877
H         42.72238       20.08153       12.18568
H         43.01112       21.40270       13.35945
H         42.78755       21.07601       10.04305
H         40.70389       23.20348       13.17664
H         42.14907       22.84204        8.44774
H         40.04573       24.92221       11.56926
H         40.20096       25.73454        9.27890
N         40.78429       18.50033       15.23910
C         41.08487       17.63611       16.37370
C         40.89935       18.45523       17.64844
O         39.96339       18.17695       18.38476
C         42.39046       16.79370       16.19989
C         42.31190       16.01157       14.85444
C         42.57211       15.83445       17.38784
C         43.47270       15.05194       14.58939
H         39.83578       18.41097       14.85585
H         40.26370       16.88138       16.41260
H         43.28204       17.45411       16.17968
H         42.30397       16.74897       14.02825
H         41.36921       15.42199       14.79957
H         43.53136       15.28195       17.29870
H         42.61929       16.39971       18.33962
H         41.73789       15.10347       17.43781
H         43.43384       14.18883       15.28662
H         43.38531       14.64666       13.55781
H         44.44611       15.57401       14.68812
N         41.68176       19.53747       17.92794
C         41.39405       20.46162       19.02372
C         41.40794       19.76692       20.36932
O         40.65870       20.16936       21.25037
C         42.40275       21.61798       19.01997
O         42.35958       22.28207       17.78283
H         42.47943       19.74671       17.32587
H         40.37977       20.89677       18.85471
H         43.41615       21.18935       19.20220
H         42.16215       22.34483       19.82509
H         43.28367       22.58627       17.58438
N         42.17420       18.65063       20.56111
C         42.14875       17.83483       21.76759
C         40.72256       17.52518       22.20093
O         40.33293       17.87786       23.30400
C         43.02684       18.45201       22.86308
H         42.76824       18.32402       19.78611
H         42.62782       16.86173       21.53238
H         43.02515       17.78978       23.75628
H         44.07542       18.50796       22.49409
H         42.69273       19.46808       23.15435
N         39.88243       16.87903       21.33693
C         38.48780       16.58188       21.66308
C         38.15699       15.11339       21.45947
O         38.82095       14.44459       20.68299
C         37.57457       17.40266       20.75728
H         40.23706       16.62111       20.40607
H         38.26457       16.85834       22.71546
H         37.78400       18.48482       20.88861
H         37.74254       17.13010       19.69245
H         36.51064       17.21044       21.01216
N         37.09832       14.56095       22.13597
C         36.64375       13.17732       21.95348
C         37.75693       12.16198       22.20002
O         37.63087       11.02177       21.76348
C         36.00037       12.99183       20.56136
C         34.79162       13.91000       20.30772
C         34.46070       13.78751       18.82353
O         33.79622       12.61221       18.46765
O         33.76577       14.85765       18.26635
H         36.58562       15.14539       22.80882
H         35.83557       12.96078       22.68479
H         35.65247       11.94092       20.43869
H         36.76971       13.19401       19.78582
H         35.09436       14.96010       20.49530
H         33.92704       13.67372       20.97420
N         38.87531       12.49153       22.90626
C         39.95003       11.55063       23.12096
H         40.76800       12.04160       23.68945
H         39.58496       10.67636       23.70048
H         40.35496       11.21065       22.14368
H         38.97289       13.43490       23.31046
Ca        33.11391       13.55482       16.50869
O         30.72094       14.30680       17.46336
H         29.99296       13.75785       17.84479
H         30.80457       15.08824       18.06448
O         30.77441       13.35932       14.39945
H         30.61542       12.38442       14.44333
H         30.28895       13.64516       13.58631
O         32.49623       16.28222       15.63744
H         33.25456       16.89946       15.79261
H         31.70692       16.87059       15.53677

Ca 1.70



