%chk=loop1.cluster8.chk
%nprocshared=48
%mem=10GB
%nosave
#b3lyp/svp scf=(tight,noincore) Test 
#IOP(5/87=12) Density=Current Pop=(MK,readradii) iop(6/33=2) iop(6/42=6)

loop1.cluster8 

   0  1 
C         39.73045       77.69863       26.32204
C         40.17625       77.44544       27.73287
O         41.36880       77.46499       28.00152
H         38.89564       78.43204       26.33728
H         40.55666       78.14311       25.72743
H         39.37757       76.76312       25.84048
N         39.24408       77.24145       28.70381
C         39.57146       77.14108       30.12529
C         39.29074       75.76372       30.68892
O         39.45660       75.57923       31.88787
C         38.80397       78.24191       30.88466
C         37.30972       78.08105       30.77778
O         36.65559       78.87227       30.11794
O         36.68896       77.06444       31.40671
H         38.24980       77.21801       28.42942
H         40.65444       77.32450       30.29393
H         39.10488       79.21695       30.44350
H         39.08800       78.26229       31.96030
N         38.93966       74.72457       29.87981
C         38.78541       73.36624       30.37906
C         39.99918       72.55440       29.97143
O         40.69238       72.95253       29.04646
C         37.44496       72.77847       29.86473
C         36.29269       73.23476       30.77716
C         34.92162       72.73249       30.30213
C         33.81779       72.90984       31.36569
N         33.52090       74.31211       31.66179
H         38.87802       74.86990       28.85952
H         38.80065       73.35583       31.48430
H         37.45403       71.66994       29.88284
H         37.28479       73.06305       28.79915
H         36.27734       74.34044       30.86243
H         36.49814       72.79691       31.77947
H         34.99198       71.64268       30.09783
H         34.63521       73.24520       29.35739
H         34.11062       72.38360       32.30285
H         32.89254       72.42492       30.98508
H         34.33278       74.77471       32.12904
H         33.27015       74.82030       30.78343
H         32.70192       74.34951       32.31250
N         40.37958       71.42215       30.63843
C         39.65522       70.84731       31.77412
C         39.78584       71.54968       33.13128
O         38.92562       71.28591       33.96036
C         39.95766       69.34260       31.91144
C         41.39230       69.03437       32.23962
O         41.80987       69.04770       33.51909
O         42.14382       68.63339       31.36707
H         41.19782       70.91338       30.27553
H         38.57999       70.87078       31.52083
H         39.69914       68.86350       30.94258
H         39.30796       68.87686       32.68438
N         40.78877       72.39965       33.51133
C         41.93649       72.80727       32.71468
C         43.12521       73.13755       33.61594
O         43.08550       72.80212       34.79178
H         40.72513       72.78048       34.46930
H         41.62326       73.69184       32.12483
H         42.28693       71.98915       32.06134
N         44.23882       73.78876       33.17079
C         44.40128       74.36440       31.84475
C         44.52776       75.86449       32.00914
O         45.49449       76.32737       32.60376
C         45.67709       73.81381       31.17106
C         45.57797       72.39431       30.69026
O         44.41070       71.72654       30.72912
O         46.55959       71.85906       30.20156
H         44.99956       73.95288       33.85082
H         43.53719       74.16261       31.18223
H         46.52665       73.90184       31.88614
H         45.90914       74.41703       30.27366
N         43.57020       76.69713       31.50785
C         43.70681       78.14016       31.55186
C         44.63150       78.65016       30.46559
O         44.86527       79.84617       30.41350
H         42.73277       76.29743       31.05862
H         44.04345       78.46065       32.56336
H         42.71944       78.61157       31.36088
N         45.17885       77.79316       29.54900
C         46.01819       78.24630       28.44716
C         45.56173       77.61268       27.13873
O         44.74793       76.70428       27.15367
C         47.50606       77.92244       28.74937
C         47.72453       76.42903       29.00511
O         47.95919       78.61180       29.89122
H         44.99533       76.78629       29.61461
H         45.91277       79.34453       28.31633
H         48.12315       78.22713       27.87663
H         47.55833       79.51891       29.89977
H         47.22545       76.14324       29.95207
H         47.32866       75.81364       28.17300
H         48.80541       76.21373       29.12378
N         46.03987       78.09792       25.95345
C         45.61122       77.56203       24.66354
C         46.82528       77.22781       23.80819
O         47.52440       78.13619       23.39253
C         44.62172       78.56190       23.97820
C         44.14032       78.07974       22.58954
C         45.16850       79.99930       23.83860
C         43.39958       76.74600       22.63207
H         46.67771       78.90357       25.96991
H         45.04754       76.62315       24.82892
H         43.73575       78.63998       24.64873
H         45.00180       77.99948       21.89049
H         43.43703       78.83578       22.17703
H         45.49006       80.41542       24.81465
H         46.01087       80.05751       23.12101
H         44.36151       80.66732       23.46721
H         44.06879       75.92146       22.95049
H         42.53485       76.81563       23.32567
H         43.02673       76.50488       21.61523
N         47.15149       75.92059       23.54319
C         48.31809       75.56827       22.71699
C         48.04568       74.48523       21.66536
O         48.88447       74.30279       20.79225
C         49.50360       75.16537       23.62734
C         49.34694       73.76021       24.22043
O         49.63462       76.08731       24.67923
H         46.62282       75.18189       24.02134
H         48.63414       76.47868       22.16272
H         50.44808       75.15147       23.03602
H         49.86666       76.96229       24.27266
H         48.36648       73.63442       24.72384
H         49.44020       72.99883       23.41778
H         50.15885       73.56928       24.95190
N         46.92320       73.70446       21.71044
C         46.59126       72.63359       20.76954
C         47.48589       71.40462       20.90840
O         48.54301       71.45957       21.51913
C         46.53826       73.12598       19.28895
C         45.66226       74.37858       19.13721
O         46.06571       72.09118       18.45388
H         46.23590       73.86143       22.45696
H         45.57731       72.28871       21.06350
H         47.56767       73.38365       18.96423
H         45.60142       72.46517       17.66182
H         45.98995       75.18774       19.81993
H         45.75816       74.75836       18.09710
H         44.59974       74.12896       19.33719
N         47.07429       70.24103       20.33039
C         47.86167       69.03469       20.21791
C         47.28560       67.74575       20.84181
O         47.99217       66.75645       20.69560
C         48.01750       68.77544       18.69465
C         48.80301       69.85206       17.93166
C         50.30894       69.79834       18.23392
C         51.11842       70.77114       17.35978
N         51.09094       70.39654       15.94189
H         46.19569       70.25142       19.82410
H         48.85870       69.16962       20.68673
H         46.99216       68.73003       18.25814
H         48.49765       67.79746       18.48015
H         48.40580       70.86935       18.13626
H         48.64158       69.63494       16.85888
H         50.69321       68.76824       18.06306
H         50.47774       70.05744       19.30028
H         52.17515       70.74835       17.70609
H         50.73653       71.80767       17.49025
H         50.12969       70.47348       15.54320
H         51.70862       71.04568       15.40467
H         51.44679       69.41980       15.82247
N         46.09705       67.54778       21.51192
C         45.00558       68.44107       21.90122
C         44.33824       69.09438       20.71194
O         44.05477       70.28497       20.73854
C         45.38700       69.31881       23.12662
C         44.12727       69.83006       23.85284
C         44.31720       70.27880       25.29831
O         44.56194       69.22325       26.18282
O         45.28223       71.26111       25.51632
H         45.92766       66.56567       21.78769
H         44.22521       67.74931       22.29407
H         46.06818       70.15539       22.86754
H         45.92641       68.65278       23.83320
H         43.38639       69.00642       23.93737
H         43.66127       70.65062       23.27394
N         44.10711       68.35758       19.58975
C         43.66222       68.95756       18.35131
H         42.70678       69.50100       18.49205
H         44.44263       69.65907       17.98102
H         43.52730       68.16673       17.58256
H         44.31493       67.34773       19.59556
Ca        45.59449       70.56712       27.67542
O         43.21145       72.33679       27.19772
H         43.29340       73.02299       26.49019
H         42.23828       72.20840       27.30517
O         48.23095       70.87369       27.60387
H         48.56709       70.47475       26.76360
H         48.76334       71.69571       27.73515
O         46.19841       73.41614       27.67635
H         47.17293       73.39885       27.50877
H         45.83645       74.00357       26.96827
O         45.44192       68.49893       29.73362
H         45.03134       67.59838       29.71772
H         46.03327       68.49507       30.52702
O         42.83076       69.71421       28.32536
H         43.04271       69.61733       29.28522
H         41.84383       69.75748       28.28109

Ca 1.70



