%chk=loop2.cluster163.chk
%nprocshared=48
%mem=10GB
%nosave
#b3lyp/svp scf=(tight,noincore) Test 
#IOP(5/87=12) Density=Current Pop=(MK,readradii) iop(6/33=2) iop(6/42=6)

loop2.cluster163 

   -2  1 
C         89.12092       76.63126        0.81895
C         88.20954       75.51333        1.26463
O         88.65381       74.72415        2.08632
H         90.07863       76.17730        0.48992
H         88.77787       77.23200       -0.03604
H         89.32771       77.31030        1.67216
N         86.92671       75.33776        0.81787
C         86.16696       76.29024        0.00134
C         85.68887       75.73597       -1.33942
O         85.89947       74.57443       -1.64833
C         85.01856       76.89177        0.86137
C         84.06949       75.95642        1.57232
O         84.14310       74.74995        1.44068
O         83.13880       76.47121        2.39769
H         86.43191       74.50711        1.16814
H         86.77635       77.15490       -0.28579
H         84.40484       77.58248        0.24975
H         85.50555       77.49317        1.65582
N         85.04845       76.58381       -2.20376
C         84.55407       76.23592       -3.53792
C         83.44399       75.19535       -3.54545
O         82.94558       74.89705       -4.62919
C         85.70277       75.87226       -4.48723
H         84.91642       77.56144       -1.91262
H         84.10186       77.16063       -3.96292
H         86.44586       76.69890       -4.50837
H         86.20774       74.93175       -4.19309
H         85.31099       75.75660       -5.52308
N         82.93680       74.64947       -2.40090
C         81.80938       73.72772       -2.40674
C         81.21053       73.52670       -1.03829
O         81.93622       73.45979       -0.04886
C         82.12538       72.36645       -3.07499
C         83.28241       71.56143       -2.52996
O         83.70961       71.68028       -1.26035
O         83.76865       70.68716       -3.22925
H         83.30766       74.95480       -1.48917
H         81.00173       74.20015       -3.01299
H         82.33339       72.54398       -4.14763
H         81.21919       71.72048       -3.04754
N         79.87195       73.34196       -0.91010
C         79.25636       73.03792        0.36419
C         77.79699       72.67038        0.22571
O         77.09626       73.24739       -0.60231
H         79.28660       73.38016       -1.76440
H         79.37414       73.89260        1.06456
H         79.78694       72.15979        0.79611
N         77.28293       71.65783        0.97750
C         75.91208       71.17689        0.86717
C         75.29245       71.04190        2.24894
O         75.87523       70.37315        3.09302
C         75.90097       69.80792        0.16957
C         76.41395       69.91063       -1.24656
N         75.54856       70.04176       -2.27959
O         77.61722       69.89677       -1.46044
H         77.91455       71.17034        1.63591
H         75.29119       71.85776        0.23931
H         74.84741       69.45687        0.13951
H         76.48892       69.04680        0.72930
H         74.53325       70.09079       -2.10972
H         75.89698       70.12233       -3.24626
N         74.09848       71.63032        2.55165
C         73.48472       71.53313        3.87432
C         73.05702       70.11725        4.23867
O         73.19960       69.22279        3.41742
H         73.61449       72.18476        1.82739
H         72.57209       72.16694        3.88793
H         74.19848       71.92557        4.62851
N         72.50087       69.81345        5.45210
C         72.33788       70.76958        6.54615
C         73.60534       70.85974        7.38913
O         73.85930       71.92028        7.93944
C         71.11475       70.41332        7.43654
C         69.79587       70.49313        6.65016
O         71.27637       69.12675        7.97969
H         72.23077       68.83209        5.62564
H         72.13185       71.78381        6.13850
H         71.06106       71.15885        8.26464
H         70.53434       68.98442        8.62440
H         69.77832       69.75238        5.82404
H         68.93783       70.28528        7.32648
H         69.65706       71.51213        6.22989
N         74.41210       69.76585        7.57947
C         75.64913       69.76212        8.37377
C         75.39911       70.35509        9.76649
O         75.56690       71.55732        9.92007
C         76.82320       70.49647        7.64298
C         76.96396       70.11444        6.14659
C         78.15114       70.26297        8.39520
C         77.20190       68.63287        5.85062
H         74.13713       68.87459        7.14165
H         75.97734       68.70405        8.46095
H         76.62293       71.59057        7.63746
H         77.80215       70.69867        5.70411
H         76.03825       70.42562        5.62232
H         78.09263       70.65880        9.43023
H         78.39093       69.17989        8.45898
H         78.98894       70.78196        7.88320
H         78.14809       68.27796        6.30597
H         76.35565       68.01620        6.21414
H         77.27562       68.49406        4.75024
N         74.91121       69.63850       10.82009
C         74.75534       68.18705       10.85127
C         76.09558       67.47014       10.97175
O         76.16115       66.27928       10.69699
C         73.86070       67.76644       12.04943
C         74.33236       68.18727       13.43178
O         73.60763       67.83415       14.50928
O         75.34551       68.85060       13.58870
H         74.65672       70.17501       11.66193
H         74.23766       67.86283        9.92155
H         73.76037       66.66023       12.04700
H         72.85054       68.20274       11.89880
N         77.18819       68.12637       11.45820
C         78.49090       67.49530       11.66503
C         78.38319       66.32354       12.66959
O         77.34215       66.21384       13.30063
C         79.52459       68.58724       12.05387
C         79.30601       69.22772       13.41213
C         78.42740       70.32040       13.58389
C         80.02204       68.75140       14.52153
C         78.25166       70.89370       14.84634
C         79.84837       69.33588       15.77962
C         78.95954       70.40100       15.94325
H         77.08567       69.11577       11.68435
H         78.78407       67.10252       10.67838
H         79.51269       69.38287       11.27653
H         80.55234       68.19303       12.00202
H         77.88381       70.74305       12.75158
H         80.71444       67.92729       14.40928
H         77.56977       71.72588       14.97241
H         80.40475       68.96244       16.62847
H         78.82509       70.85002       16.91875
N         79.36453       65.36527       12.84773
C         80.69436       65.33711       12.24909
C         80.74356       65.12048       10.75061
O         79.71124       65.01418       10.10077
C         81.38338       64.18007       12.99691
C         80.23215       63.25640       13.33501
C         79.14388       64.24191       13.74308
H         81.26354       66.25594       12.47284
H         82.23162       63.69151       12.46996
H         81.75989       64.57443       13.96584
H         79.91246       62.75693       12.39229
H         80.45605       62.47513       14.09390
H         78.15533       63.75006       13.61036
H         79.26477       64.59445       14.79161
N         81.96630       65.05335       10.13697
C         82.13510       64.96734        8.69320
C         83.38653       65.74541        8.22434
O         84.11801       65.21148        7.40099
C         82.26732       63.46779        8.29890
C         81.03021       62.63860        8.67054
C         81.16654       61.20013        8.26293
O         82.24322       60.48542        8.64275
O         80.28177       60.66234        7.61632
H         82.81536       65.13429       10.71805
H         81.25482       65.41361        8.17914
H         83.15294       63.04452        8.83114
H         82.44186       63.37496        7.20553
H         80.13061       63.07613        8.18445
H         80.89803       62.65515        9.76975
N         83.75687       66.98185        8.69000
C         83.07110       67.77163        9.69354
H         82.07207       67.39999        9.96160
H         83.71047       67.81741       10.60393
H         82.93761       68.80606        9.31849
H         84.64235       67.37573        8.33373
Ca        84.22847       72.08049        0.89283
O         85.22590       69.78535        2.47160
H         85.16107       68.83315        2.21038
H         85.81330       69.78797        3.26832
O         82.34317       69.88207        1.01703
H         82.27590       68.90411        1.15235
H         81.55693       70.11717        0.46328
O         86.96383       72.01141        0.10538
H         87.77554       71.53022       -0.18538
H         87.00914       72.86488       -0.38674
O         82.17213       72.55649        2.85184
H         81.26915       72.28089        3.14740
H         82.23627       73.51422        3.09380
O         85.99616       72.58970        3.22591
H         85.96467       73.50799        3.59322
H         86.86574       72.22607        3.52842

Ca 1.70



