%chk=loop4.cluster49.chk
%nprocshared=48
%mem=10GB
%nosave
#b3lyp/svp scf=(tight,noincore) Test 
#IOP(5/87=12) Density=Current Pop=(MK,readradii) iop(6/33=2) iop(6/42=6)

loop4.cluster49 

   -3  1 
C         45.37275       47.39913       49.16096
C         45.88047       46.82981       50.45246
O         46.94896       46.23893       50.45715
H         44.40770       47.92644       49.30924
H         46.10869       48.12389       48.75194
H         45.22170       46.58010       48.42775
N         45.16777       46.99968       51.60653
C         45.59267       46.50638       52.91575
C         46.97046       47.00039       53.32507
O         47.63653       46.36295       54.11644
C         45.27151       45.00973       53.10746
C         45.73529       44.11160       51.99935
O         44.90787       43.69062       51.20861
O         46.93719       43.51139       52.08683
H         44.29300       47.54230       51.56727
H         44.93551       46.99634       53.66799
H         44.16031       44.94233       53.11226
H         45.60003       44.62751       54.09920
N         47.38547       48.22237       52.89889
C         48.56601       48.94964       53.35121
C         48.40018       49.41912       54.78962
O         49.33914       49.35513       55.57157
C         49.94762       48.28187       53.06580
C         51.02395       49.40409       52.95222
C         49.92370       47.47002       51.76899
C         52.47004       48.91840       52.88462
H         46.78696       48.72382       52.22778
H         48.53809       49.88102       52.74166
H         50.18437       47.57869       53.89564
H         50.96359       50.09987       53.81401
H         50.80915       49.99852       52.03481
H         49.69572       48.11008       50.89212
H         50.89606       46.97258       51.62933
H         49.16940       46.66743       51.82768
H         52.75743       48.43984       53.84230
H         52.64552       48.21456       52.04930
H         53.12542       49.79847       52.71717
N         47.22626       49.99636       55.16857
C         47.08029       50.75928       56.40254
C         45.94989       50.28448       57.32653
O         44.85004       50.80891       57.23084
C         46.95704       52.26287       56.04008
C         45.88217       52.66611       55.04893
O         45.81923       53.94669       54.64045
O         45.08973       51.85753       54.59307
H         46.44917       49.98804       54.49699
H         48.01352       50.73729       56.99518
H         47.92489       52.56389       55.58436
H         46.82012       52.85327       56.97126
N         46.16955       49.40581       58.35847
C         47.37829       48.60529       58.48447
C         47.36065       47.54341       57.39875
O         46.31553       47.35033       56.79175
H         45.41566       49.24585       59.04515
H         47.38715       48.08689       59.46690
H         48.27363       49.25426       58.46960
N         48.44955       46.80035       57.05802
C         49.76443       46.89685       57.66953
C         50.80838       46.30259       56.71292
O         50.62224       45.16893       56.29245
C         49.75163       46.07013       58.96463
C         51.10659       46.00037       59.60952
O         51.68537       47.11265       60.09786
O         51.68929       44.93044       59.68699
H         48.32392       46.10763       56.31050
H         49.99527       47.95432       57.88190
H         49.41952       45.03974       58.70635
H         49.02696       46.48730       59.69109
N         51.95246       46.95513       56.33930
C         52.35693       48.26154       56.84713
C         53.86155       48.42139       56.91842
O         54.34175       49.54580       56.88209
H         52.60024       46.45727       55.70774
H         52.04427       48.39443       57.89822
H         51.89701       49.05905       56.22955
N         54.65604       47.34496       57.17973
C         56.09411       47.44914       57.43094
C         56.92833       47.81508       56.19347
O         58.13738       47.94903       56.32635
C         56.59111       46.12793       58.07346
C         56.54384       44.92394       57.11014
C         56.86827       43.60891       57.77276
N         56.68403       42.45713       57.08807
O         57.26857       43.57092       58.92775
H         54.19960       46.43079       57.30314
H         56.23956       48.23603       58.20474
H         55.92899       45.91722       58.94650
H         57.62372       46.25388       58.46387
H         57.24528       45.08176       56.26280
H         55.52221       44.82360       56.69762
H         56.31401       42.47809       56.12596
H         56.87843       41.54722       57.53054
N         56.35861       47.96177       54.95759
C         57.13240       48.21792       53.74177
C         57.52657       46.88423       53.12384
O         56.66766       46.04264       52.89791
C         56.29852       49.05852       52.73141
C         57.04628       49.29031       51.40321
C         55.92369       50.42727       53.32375
H         55.34873       47.80329       54.84895
H         58.04846       48.80925       53.97767
H         55.36916       48.49646       52.49703
H         56.36667       49.78514       50.67623
H         57.94021       49.93398       51.55021
H         57.36951       48.33416       50.94347
H         55.31088       50.31002       54.24047
H         56.83873       51.00641       53.57842
H         55.33451       51.01576       52.58789
N         58.82834       46.65241       52.79226
C         59.33530       45.40435       52.22650
C         58.73869       45.08150       50.86693
O         58.72952       45.97804       50.03125
C         59.33269       44.28610       53.29122
C         60.23183       44.63116       54.46350
N         60.23405       43.85287       55.56615
O         60.97138       45.60503       54.41666
H         59.51272       47.40807       52.94810
H         60.40423       45.57968       51.97323
H         59.72487       43.33411       52.87460
H         58.29284       44.12339       53.64417
H         59.60505       43.04101       55.63453
H         60.85286       44.08187       56.35821
N         58.37616       43.80868       50.50339
C         58.21522       43.44733       49.09779
C         56.82774       42.96828       48.72432
O         56.00091       42.67888       49.58105
C         59.27321       42.38497       48.72403
C         60.69892       42.86519       48.91399
C         61.52979       42.26329       49.87591
C         61.21986       43.89171       48.10558
C         62.86165       42.66884       50.01449
C         62.55628       44.28836       48.24021
C         63.38320       43.67043       49.19025
O         64.68030       44.02268       49.31008
H         58.35795       43.04787       51.19889
H         58.38591       44.33753       48.45635
H         59.16384       42.07389       47.66247
H         59.08957       41.48342       49.35006
H         61.14964       41.47516       50.51294
H         60.59895       44.36682       47.35692
H         63.49473       42.19267       50.75305
H         62.95216       45.06653       47.59909
H         65.08892       44.67595       48.72408
N         56.50133       42.95651       47.40063
C         55.19879       42.65371       46.82817
C         54.10829       43.58627       47.31810
O         52.96404       43.18042       47.44867
C         54.81964       41.16681       46.91455
C         55.92533       40.22279       46.41077
C         56.42227       40.52572       45.02077
O         57.71576       40.30640       44.71557
O         55.65217       40.89711       44.14912
H         57.22810       43.26403       46.73277
H         55.28970       42.89563       45.74710
H         53.90672       41.00958       46.29614
H         54.57602       40.89287       47.96277
H         55.52300       39.18872       46.42298
H         56.78980       40.25144       47.10868
N         54.41682       44.88816       47.55992
C         53.42670       45.89978       47.88502
C         53.56844       47.04611       46.92003
O         52.59005       47.40690       46.27568
C         53.59614       46.36779       49.34872
C         53.15932       45.26817       50.34067
C         51.67960       44.94143       50.21035
O         51.10847       44.01563       50.98668
O         50.95679       45.60089       49.48126
H         55.40033       45.17660       47.50731
H         52.40636       45.50545       47.73754
H         52.95934       47.26160       49.53767
H         54.65178       46.66483       49.53527
H         53.33885       45.63218       51.37835
H         53.78167       44.36120       50.19154
N         54.76786       47.66465       46.75387
C         54.95900       48.73609       45.80664
H         55.98589       48.67158       45.39047
H         54.24840       48.66156       44.95499
H         54.83963       49.70551       46.32955
H         55.58530       47.35047       47.29779
Ca        48.84743       44.19735       51.08979
O         48.86869       44.16892       47.84909
H         48.95780       43.74618       46.95846
H         48.78280       45.13697       47.66126
O         49.52457       44.59967       53.47377
H         49.20155       44.02657       54.20892
H         50.27171       45.14143       53.81902
O         47.00165       42.48128       49.14884
H         46.79232       41.81789       48.44844
H         46.13537       42.60684       49.59647
O         49.22397       41.47666       51.45714
H         49.54286       41.32287       52.38134
H         48.33382       41.04544       51.42035

Ca 1.70



