%chk=loop2.cluster86.chk
%nprocshared=48
%mem=10GB
%nosave
#b3lyp/svp scf=(tight,noincore) Test 
#IOP(5/87=12) Density=Current Pop=(MK,readradii) iop(6/33=2) iop(6/42=6)

loop2.cluster86 

   -2  1 
C         82.88981       54.65227        8.27654
C         84.15094       54.58054        7.47789
O         85.13191       55.18512        7.88656
H         82.05983       54.10416        7.78703
H         83.09098       54.18990        9.26631
H         82.59479       55.71176        8.42831
N         84.21554       53.84792        6.32615
C         85.47032       53.66508        5.61103
C         85.45859       54.47737        4.33285
O         84.60865       54.26317        3.47911
C         85.75227       52.15895        5.41159
C         87.19982       51.86236        5.10990
O         87.73352       50.69389        5.51151
O         87.94004       52.73956        4.70784
H         83.36750       53.37712        5.97207
H         86.29805       54.03852        6.24626
H         85.07651       51.69216        4.66042
H         85.55103       51.65906        6.38326
N         86.38899       55.45987        4.15861
C         86.41172       56.36436        3.01839
C         87.39659       55.91328        1.94074
O         87.50186       56.58672        0.92539
C         86.75186       57.77285        3.53529
H         87.10908       55.58643        4.88177
H         85.40528       56.40827        2.54941
H         86.03469       58.06770        4.33304
H         87.77548       57.79208        3.97341
H         86.69898       58.52502        2.72187
N         88.15328       54.78383        2.09938
C         89.11385       54.30064        1.10856
C         88.95769       52.80686        0.74460
O         89.56318       52.39400       -0.23610
C         90.54237       54.60063        1.61372
C         90.77902       54.16428        3.03678
O         90.63949       53.00590        3.35990
O         91.11317       55.06872        3.97343
H         88.09853       54.28306        2.98452
H         88.98524       54.86095        0.15499
H         90.69207       55.70042        1.59599
H         91.29140       54.14238        0.93201
N         88.16794       51.94172        1.45809
C         87.99028       50.53410        1.08832
C         89.13618       49.60251        1.48205
O         89.06412       48.42003        1.17774
H         87.63387       52.28643        2.26145
H         87.80306       50.46476       -0.00539
H         87.08350       50.14985        1.60096
N         90.22302       50.06707        2.15639
C         91.40570       49.26660        2.46848
C         91.20676       48.18899        3.54802
O         92.16914       47.50135        3.86412
C         92.59865       50.21151        2.77796
C         92.57211       50.97032        4.07201
N         93.60409       51.79082        4.37133
O         91.64253       50.84972        4.85094
H         90.25490       51.05757        2.36433
H         91.71333       48.75194        1.53270
H         92.67071       50.96128        1.95814
H         93.53598       49.61875        2.78150
H         94.37723       51.92763        3.70844
H         93.64880       52.27957        5.26403
N         89.98728       47.94753        4.12219
C         89.76044       46.85266        5.06152
C         90.25157       47.10951        6.47151
O         90.07739       46.24136        7.31459
H         89.16740       48.49082        3.82623
H         90.20490       45.91569        4.65916
H         88.66535       46.68957        5.15060
N         90.85695       48.27859        6.81067
C         91.29817       48.58601        8.16608
C         90.70931       49.88011        8.65166
O         90.14163       50.62492        7.87096
C         92.85056       48.64645        8.23133
C         93.39820       47.23553        8.38371
O         93.42509       49.22647        7.08286
H         91.00588       48.98460        6.08778
H         90.92047       47.83337        8.88965
H         93.18921       49.20312        9.13342
H         92.93041       50.05613        6.87040
H         93.11527       46.60942        7.51287
H         94.50279       47.27131        8.47824
H         92.98466       46.78446        9.31275
N         90.82391       50.21172        9.96853
C         90.38191       51.49289       10.47798
C         91.56910       52.40312       10.45534
O         92.57184       52.10301       11.09389
C         89.79243       51.40578       11.91503
C         88.72806       50.29104       11.99327
C         89.22583       52.78386       12.32119
C         88.01603       50.22146       13.34272
H         91.31835       49.56965       10.60661
H         89.57548       51.89908        9.82503
H         90.59846       51.14388       12.63908
H         89.24909       49.32138       11.83946
H         87.96646       50.41257       11.19420
H         88.41929       53.10186       11.62697
H         88.83507       52.78418       13.35721
H         90.02807       53.54021       12.31283
H         87.39511       49.30369       13.38224
H         88.75052       50.20016       14.17577
H         87.33944       51.09347       13.46464
N         91.51037       53.56828        9.76596
C         92.56097       54.55623        9.84950
C         92.17709       55.54197       10.93032
O         91.05662       55.47601       11.40363
C         92.79301       55.17350        8.46331
C         93.26331       54.12895        7.47383
O         92.42457       53.31711        6.78949
O         94.45986       54.00754        7.27917
H         90.62883       53.82816        9.30116
H         93.50797       54.08489       10.19834
H         93.59934       55.93073        8.56869
H         91.89268       55.69871        8.07893
N         93.07516       56.39675       11.48190
C         92.74066       57.21517       12.64564
C         91.59618       58.20312       12.37074
O         90.68209       58.23792       13.17553
C         94.00609       57.84189       13.26200
C         93.71281       58.72458       14.45388
C         94.12102       60.06760       14.43540
C         93.03727       58.22601       15.58574
C         93.85095       60.90262       15.52135
C         92.76291       59.06971       16.66775
C         93.16816       60.40670       16.63431
H         94.04415       56.39888       11.12125
H         92.36257       56.53250       13.44362
H         94.56104       58.41288       12.49500
H         94.67055       57.01175       13.59317
H         94.64946       60.46607       13.57855
H         92.71751       57.19281       15.62980
H         94.16981       61.93611       15.49720
H         92.23488       58.68778       17.53238
H         92.95485       61.05876       17.47114
N         91.53931       59.00583       11.25825
C         90.38327       59.85863       10.97556
C         89.07270       59.08246       10.88914
O         88.01132       59.66659       11.07244
C         90.73309       60.45409        9.60284
C         92.25173       60.46715        9.63340
C         92.57178       59.11494       10.26382
H         90.33840       60.62983       11.77380
H         90.45367       59.73491        8.79796
H         90.24626       61.43047        9.39058
H         92.74871       60.65165        8.65831
H         92.56234       61.26073       10.35171
H         92.46185       58.27873        9.53681
H         93.59647       59.15755       10.67661
N         89.07705       57.76150       10.56116
C         87.87845       56.93202       10.49939
C         87.43429       56.55472       11.90378
O         86.24715       56.58133       12.18814
C         88.12230       55.68708        9.61936
C         88.62038       56.15034        8.23712
C         88.79137       55.08376        7.22972
O         89.21393       55.38483        6.12592
O         88.66439       53.79313        7.54225
H         89.98049       57.32769       10.33196
H         87.06538       57.48394        9.97537
H         87.16310       55.13992        9.49760
H         88.85032       54.99423       10.08695
H         89.62761       56.61091        8.33268
H         87.92572       56.89882        7.81403
N         88.37064       56.28443       12.85892
C         88.07074       56.03308       14.24940
H         86.98532       55.93692       14.44257
H         88.59020       55.10701       14.57575
H         88.47426       56.87897       14.84769
H         89.35569       56.32559       12.60987
Ca        90.27440       52.81924        6.45436

Ca 1.70



