%chk=loop4.cluster120.chk
%nprocshared=48
%mem=10GB
%nosave
#b3lyp/svp scf=(tight,noincore) Test 
#IOP(5/87=12) Density=Current Pop=(MK,readradii) iop(6/33=2) iop(6/42=6)

loop4.cluster120 

   -3  1 
C         65.27396       25.98547       63.26295
C         65.71040       25.36719       64.56222
O         66.07919       26.08588       65.47783
H         64.40352       26.65121       63.43056
H         66.11298       26.56853       62.82878
H         64.98206       25.20729       62.52405
N         65.70907       24.01357       64.69390
C         66.16780       23.28989       65.87728
C         65.27565       23.53877       67.08706
O         65.76989       23.62946       68.20531
C         67.66538       23.54939       66.16770
C         68.49096       23.58672       64.91413
O         69.18849       24.69956       64.61595
O         68.51177       22.63297       64.15275
H         65.38874       23.44441       63.89558
H         66.05900       22.21159       65.62297
H         68.05302       22.76310       66.85089
H         67.79001       24.53284       66.66961
N         63.92989       23.66519       66.92456
C         62.99835       23.83460       68.03712
C         62.79273       22.47788       68.67995
O         62.52861       21.53446       67.94575
C         61.62497       24.36847       67.52437
C         61.84228       25.74341       66.83714
C         60.58889       24.45923       68.66931
C         60.56620       26.41012       66.33621
H         63.55054       23.63148       65.96546
H         63.38934       24.60265       68.73782
H         61.21618       23.65216       66.77595
H         62.49801       25.59554       65.95529
H         62.35383       26.44962       67.52798
H         60.44975       23.47474       69.16551
H         60.89331       25.20344       69.43300
H         59.59120       24.73591       68.27130
H         59.96678       25.70288       65.72681
H         59.96245       26.78053       67.19121
H         60.84268       27.28358       65.70846
N         62.83534       22.25989       70.02333
C         63.04581       23.27808       71.05138
C         64.52374       23.46702       71.30329
O         64.99755       24.59610       71.30799
C         62.20558       22.96341       72.31984
C         62.35549       21.62014       73.00506
O         61.57033       21.33634       74.05959
O         63.13780       20.77528       72.60974
H         62.65329       21.29627       70.33333
H         62.63297       24.25867       70.73324
H         61.13728       23.03569       72.01959
H         62.39705       23.75745       73.07390
N         65.33077       22.38341       71.42515
C         66.76698       22.45899       71.50414
C         67.29436       23.10449       72.74480
O         66.78191       22.86790       73.83033
H         64.92604       21.44444       71.35550
H         67.17364       22.94885       70.59509
H         67.15699       21.42092       71.52952
N         68.44084       23.82715       72.65262
C         69.22734       24.21253       73.80980
C         69.00277       25.67800       74.17536
O         69.50779       26.11315       75.20126
C         70.68120       23.78664       73.50874
C         71.61229       23.91727       74.67095
O         72.61103       24.61180       74.57919
O         71.38215       23.21968       75.79935
H         68.84326       23.99980       71.71745
H         68.88719       23.63374       74.69674
H         71.06337       24.35970       72.63464
H         70.67403       22.70855       73.22174
N         68.15080       26.45967       73.44060
C         67.64871       27.76079       73.86357
C         68.61020       28.92804       73.88418
O         68.13791       30.05126       73.98266
H         67.71877       26.06878       72.59144
H         67.18439       27.67495       74.86900
H         66.83734       28.03586       73.15555
N         69.95926       28.76170       73.83816
C         70.90619       29.86336       73.95746
C         70.75982       30.82837       72.80042
O         70.77200       32.03842       72.99209
C         70.80667       30.56523       75.33003
C         70.87541       29.56896       76.49752
C         71.05569       30.26128       77.82591
N         71.41737       29.54360       78.91231
O         70.92163       31.47352       77.92002
H         70.35642       27.82128       73.73815
H         71.92200       29.41446       73.87877
H         69.87107       31.15980       75.41875
H         71.67026       31.26291       75.40033
H         71.75550       28.91483       76.33592
H         69.96477       28.92518       76.53110
H         71.57248       28.52741       78.83919
H         71.58697       30.01462       79.81293
N         70.57478       30.32906       71.55203
C         70.40637       31.17546       70.37987
C         71.73313       31.72287       69.91921
O         72.76420       31.10364       70.12965
C         69.60560       30.49116       69.23091
C         70.06930       29.05873       68.88242
C         68.10891       30.51817       69.56566
H         70.51233       29.31168       71.45744
H         69.80856       32.06640       70.68171
H         69.71199       31.10461       68.30875
H         69.95987       28.33929       69.71835
H         69.43907       28.64802       68.06684
H         71.12571       29.06067       68.54470
H         67.51942       30.03980       68.75637
H         67.89573       30.02018       70.53384
H         67.77489       31.57907       69.62924
N         71.75471       32.94713       69.32299
C         72.97473       33.62767       68.93178
C         72.94612       33.92467       67.45248
O         72.01084       34.55212       66.98529
C         73.07183       34.95622       69.71291
C         74.24901       35.79551       69.26873
N         75.50584       35.29536       69.29199
O         74.05821       36.93322       68.86420
H         70.86270       33.44195       69.17847
H         73.87054       33.01963       69.17431
H         73.16337       34.73246       70.79672
H         72.13892       35.54806       69.56471
H         75.68488       34.33319       69.61144
H         76.29848       35.86791       68.96737
N         74.00210       33.56175       66.66751
C         74.13451       34.08045       65.31190
C         75.18001       33.32854       64.53115
O         76.31025       33.22241       64.98080
C         74.51178       35.57799       65.38480
C         74.82653       36.21155       64.04352
C         74.00255       36.00254       62.92169
C         75.96342       37.02867       63.91442
C         74.32767       36.58134       61.69077
C         76.27075       37.62525       62.68961
C         75.45882       37.39521       61.57099
O         75.75855       37.95118       60.37965
H         74.78063       33.02920       67.08060
H         73.16688       33.96528       64.78245
H         75.39579       35.69408       66.05471
H         73.67287       36.12992       65.85081
H         73.12393       35.37624       62.98958
H         76.60375       37.21708       64.76739
H         73.69968       36.39683       60.82835
H         77.14138       38.26409       62.61017
H         76.54023       38.51021       60.26230
N         74.85206       32.80741       63.30833
C         75.83393       32.13282       62.47670
C         75.80820       32.66168       61.02605
O         76.79196       33.28650       60.65256
C         75.73452       30.60926       62.70246
C         77.00716       29.86318       62.29025
C         76.85741       28.39596       62.57302
O         77.64494       27.79946       63.48874
O         76.01325       27.74128       61.98231
H         73.88762       32.90168       62.97097
H         76.83926       32.39591       62.87306
H         74.83892       30.17098       62.23837
H         75.62298       30.43690       63.79686
H         77.85565       30.26002       62.89353
H         77.23489       30.01569       61.21548
N         74.78390       32.47968       60.12051
C         73.57228       31.69161       60.34424
C         72.31113       32.36812       59.81826
O         72.39684       33.34484       59.08596
C         73.75081       30.30561       59.68160
C         73.84953       30.33846       58.14633
C         74.20061       28.97433       57.62539
O         73.37496       27.93253       57.84086
O         75.24542       28.80247       57.01739
H         74.93024       32.85478       59.16987
H         73.41911       31.53779       61.41942
H         72.91342       29.63695       59.97604
H         74.69434       29.86678       60.06623
H         74.64063       31.04906       57.82873
H         72.88509       30.66546       57.70015
N         71.08971       31.84708       60.13905
C         69.83569       32.35543       59.61480
H         69.17447       32.66580       60.45152
H         69.96974       33.21693       58.92812
H         69.32924       31.54033       59.05458
H         71.04524       31.04215       60.78094
Ca        69.90431       24.16196       61.95403
O         72.23840       25.65191       62.60329
H         72.57915       26.31602       61.95324
H         73.03790       25.34261       63.09717
O         68.88480       21.95581       60.66207
H         69.14559       21.06526       61.00539
H         69.09768       21.93122       59.69593
O         71.84513       22.31727       62.92981
H         72.64572       22.37422       62.35043
H         72.05134       21.59826       63.57705
O         69.51107       26.89623       62.52257
H         69.64356       27.17967       63.46136
H         69.06747       27.66256       62.08242
O         71.74130       23.35058       59.81049
H         71.98767       24.21796       59.40228
H         72.56537       22.80563       59.75590
O         69.71256       25.80577       59.66056
H         70.37013       26.52995       59.50959
H         69.61582       25.36115       58.78176

Ca 1.70



