%chk=loop1.cluster117.chk
%nprocshared=48
%mem=10GB
%nosave
#b3lyp/svp scf=(tight,noincore) Test 
#IOP(5/87=12) Density=Current Pop=(MK,readradii) iop(6/33=2) iop(6/42=6)

loop1.cluster117 

   0  1 
C         87.76966       13.08407       70.96136
C         86.65496       13.40266       70.01714
O         85.73398       12.60621       69.89151
H         88.56821       13.85240       70.90279
H         87.38043       13.04378       71.99935
H         88.20624       12.10044       70.68947
N         86.65847       14.57381       69.32088
C         85.61004       14.89111       68.36540
C         85.74552       14.01125       67.14609
O         86.83187       13.52124       66.86986
C         85.66404       16.36772       67.93302
C         85.55003       17.30048       69.10911
O         84.73251       17.00398       70.13881
O         86.23019       18.31267       69.15196
H         87.40981       15.25882       69.49049
H         84.62185       14.71376       68.84964
H         84.81878       16.57249       67.24104
H         86.61075       16.57988       67.38677
N         84.66346       13.77552       66.35858
C         84.76881       12.95334       65.15738
C         85.43465       13.72147       64.02450
O         85.64293       13.14295       62.96813
C         83.39062       12.43479       64.70464
C         82.60466       11.81441       65.87091
C         81.38790       11.04227       65.37610
C         80.48655       10.65516       66.55362
N         79.36123        9.84589       66.09562
H         83.75629       14.17562       66.63095
H         85.36784       12.04852       65.40912
H         83.56660       11.67008       63.91447
H         82.77736       13.25439       64.26812
H         82.25933       12.63123       66.53886
H         83.24667       11.12187       66.45892
H         81.74439       10.13316       64.84283
H         80.79820       11.66769       64.67202
H         80.10184       11.58508       67.03232
H         81.06518       10.08559       67.31464
H         78.82163       10.36068       65.36228
H         79.71538        8.94226       65.70595
H         78.73202        9.64584       66.90577
N         85.75398       15.04224       64.15560
C         86.29866       15.87292       63.08928
C         87.20593       16.91693       63.72508
O         86.81611       17.53194       64.71583
C         85.12538       16.50992       62.32628
C         85.52257       17.43295       61.19509
O         86.18655       17.02111       60.09023
O         85.19496       18.60526       61.25994
H         85.49011       15.52521       65.02688
H         86.87587       15.26164       62.36069
H         84.52014       17.09401       63.05694
H         84.47465       15.70804       61.91703
N         88.44313       17.16405       63.22695
C         89.38275       18.02911       63.92062
C         90.64356       18.25684       63.12840
O         91.19746       17.29667       62.60451
H         88.72813       16.69115       62.35604
H         89.66441       17.51830       64.86664
H         88.91529       19.00561       64.17825
N         91.17549       19.51020       63.00965
C         92.43762       19.76261       62.31625
C         93.39650       20.55025       63.16972
O         92.96389       21.25974       64.06705
C         92.21340       20.50961       61.00283
C         91.43542       19.67154       60.04258
O         90.37461       20.07643       59.59741
O         91.91932       18.47524       59.65179
H         90.68398       20.30546       63.45283
H         92.94314       18.79715       62.09173
H         93.19343       20.72647       60.52843
H         91.68922       21.47063       61.20080
N         94.73361       20.49714       62.89963
C         95.76207       21.06933       63.75194
C         95.97043       20.16597       64.94177
O         97.00765       19.52235       65.03180
H         95.04767       19.95649       62.07819
H         95.53368       22.11720       64.04018
H         96.71349       21.07683       63.17434
N         94.98625       20.02726       65.86863
C         95.02993       19.07478       66.95694
C         94.85119       19.78973       68.26962
O         94.48211       20.95814       68.28829
C         93.91514       18.01068       66.75703
C         92.49196       18.61884       66.72470
O         94.16736       17.32891       65.55385
H         94.15538       20.61172       65.80199
H         96.01448       18.55668       66.97713
H         93.96974       17.28750       67.60156
H         93.43008       16.67890       65.41500
H         92.36048       19.30125       65.86076
H         91.73695       17.81225       66.61757
H         92.26646       19.17187       67.66016
N         95.13198       19.13701       69.42519
C         94.92365       19.74264       70.72950
C         96.24294       20.22828       71.29980
O         96.43166       20.17760       72.50870
C         94.16844       18.75323       71.66540
C         95.00121       17.45841       71.90369
C         92.77701       18.43358       71.08855
C         94.50313       16.62972       73.08158
H         95.54838       18.19799       69.36661
H         94.30857       20.66606       70.63202
H         94.02745       19.26748       72.64161
H         96.04609       17.73252       72.15291
H         95.03231       16.81855       70.99518
H         92.86193       17.94810       70.09195
H         92.20755       17.75983       71.75904
H         92.19182       19.37066       70.97021
H         93.50005       16.20385       72.88540
H         95.21432       15.79490       73.26178
H         94.47284       17.26147       73.99475
N         97.18162       20.78686       70.47756
C         98.42259       21.35520       70.98140
C         99.61820       20.66384       70.37310
O         99.49812       20.06963       69.30922
C         98.50995       22.85039       70.59658
C         97.23851       23.62545       70.92104
O         99.58563       23.45088       71.27276
H         97.00555       20.83563       69.46414
H         98.46829       21.25529       72.08832
H         98.63890       22.93362       69.48683
H        100.29230       23.63576       70.60342
H         96.39566       23.25227       70.29934
H         96.98280       23.52281       71.99457
H         97.39347       24.69666       70.67289
N        100.84168       20.81141       70.95278
C        102.07546       20.38286       70.30434
C        102.80786       19.30071       71.08532
O        103.78839       18.77123       70.58078
C        102.94583       21.63823       70.02166
C        103.51295       22.28275       71.29541
O        102.18115       22.60564       69.34644
H        100.89790       21.30082       71.85795
H        101.83756       19.92677       69.31977
H        103.81573       21.36346       69.38674
H        101.90974       22.21879       68.47438
H        104.06383       23.20969       71.02807
H        102.71714       22.56406       72.01518
H        104.22240       21.59090       71.79472
N        102.38395       18.91226       72.32115
C        102.99162       17.81568       73.05686
C        102.49870       16.49719       72.51483
O        101.29755       16.32502       72.34773
C        102.61635       17.93882       74.54776
C        103.16398       16.80507       75.43392
C        102.92357       17.15696       76.91359
C        103.36607       16.05430       77.88511
N        102.41720       14.93792       77.91545
H        101.59375       19.40048       72.76383
H        104.10264       17.88448       73.02034
H        101.51104       17.96568       74.66804
H        103.03664       18.90529       74.90201
H        104.25897       16.68132       75.27174
H        102.66386       15.85450       75.15429
H        101.85421       17.39583       77.09993
H        103.52748       18.06595       77.12597
H        103.41730       16.48320       78.91079
H        104.38764       15.70653       77.61479
H        101.55233       15.23013       78.42615
H        102.14756       14.62827       76.95711
H        102.84789       14.13540       78.42868
N        103.37150       15.46654       72.35696
C        102.90103       14.11092       72.10522
C        102.42972       13.94459       70.66495
O        102.81981       14.74609       69.82771
C        104.02053       13.08151       72.42083
C        104.61250       13.18585       73.84957
C        103.64416       13.01362       74.98816
O        102.46665       12.75826       74.79497
O        104.09529       13.14359       76.24838
H        104.36459       15.63161       72.57185
H        102.05323       13.95142       72.79204
H        104.86266       13.24897       71.71099
H        103.64351       12.05002       72.26080
H        105.10924       14.16735       73.98292
H        105.40073       12.41132       73.96328
N        101.63722       12.90500       70.25876
C        100.99928       11.94839       71.14650
H         99.95649       11.78513       70.79740
H        101.53006       10.97608       71.11381
H        100.90122       12.30357       72.18762
H        101.43786       12.80952       69.25094
Ca        87.20614       15.23993       59.12209
O         87.01156       12.77993       60.20886
H         87.73997       12.54221       60.83373
H         86.38908       13.33023       60.74493
O         84.47761       14.66324       59.06830
H         84.00169       14.08297       59.71262
H         83.86891       15.42801       58.91462
O         86.89711       13.00147       57.02307
H         86.08396       12.84715       56.47979
H         87.64903       12.80669       56.40911
O         89.17475       17.15449       59.82961
H         89.52276       17.79798       59.16916
H         88.46427       17.66288       60.28937
O         88.66731       16.39974       56.59434
H         88.38400       16.96127       55.82986
H         89.57810       16.72020       56.81116
O         85.71648       17.01000       57.22740
H         86.11503       17.44761       56.43523
H         84.74041       17.11130       57.10258

Ca 1.70



