%chk=loop3.cluster133.chk
%nprocshared=48
%mem=10GB
%nosave
#b3lyp/svp scf=(tight,noincore) Test 
#IOP(5/87=12) Density=Current Pop=(MK,readradii) iop(6/33=2) iop(6/42=6)

loop3.cluster133 

   0  1 
C         38.58197        6.65293        9.05833
C         37.50302        7.35594        8.29301
O         36.64583        6.68848        7.73205
H         39.37170        7.36071        9.38681
H         38.14278        6.15679        9.94798
H         39.05052        5.88557        8.40607
N         37.46606        8.71774        8.24291
C         36.46857        9.44550        7.46625
C         35.46543       10.12513        8.37913
O         35.54777        9.97762        9.59142
C         37.17513       10.45348        6.52824
C         38.07549        9.79930        5.50931
O         38.22516        8.46047        5.46863
O         38.66469       10.49207        4.69564
H         38.15674        9.26009        8.78642
H         35.86658        8.75422        6.83857
H         37.77289       11.17198        7.13171
H         36.41870       11.03104        5.95852
N         34.42905       10.82494        7.82442
C         33.33154       11.47199        8.54669
C         33.68420       12.77675        9.22437
O         32.82843       13.64840        9.30192
C         32.55654       10.54156        9.49618
C         32.24023        9.21930        8.79656
C         31.05732        8.49107        9.42439
C         30.80748        7.19251        8.64896
N         29.58241        6.53311        9.09142
H         34.36377       10.84089        6.79611
H         32.60064       11.76067        7.75461
H         31.61620       11.07492        9.76144
H         33.10556       10.33857       10.44328
H         33.15234        8.57991        8.80468
H         31.96072        9.42488        7.74163
H         30.16276        9.14809        9.34660
H         31.24699        8.26797       10.49776
H         31.68019        6.51967        8.80018
H         30.71911        7.40797        7.55888
H         28.75367        7.05888        8.72806
H         29.56341        5.56377        8.70073
H         29.54209        6.48529       10.13456
N         34.89977       12.96003        9.79683
C         35.27646       14.15155       10.51682
C         36.53963       14.70468        9.90346
O         37.37961       13.94412        9.43980
C         35.46347       13.76783       11.99176
C         35.87588       14.93403       12.83172
O         35.21766       15.96015       12.81465
O         36.96219       14.84528       13.62140
H         35.59888       12.22132        9.75716
H         34.47776       14.92695       10.47274
H         36.20847       12.94912       12.09871
H         34.48467       13.39929       12.36984
N         36.74319       16.04353        9.88679
C         37.93938       16.63181        9.31939
C         38.23112       17.90863       10.04524
O         37.39140       18.79408       10.07935
H         36.04231       16.65600       10.33249
H         37.80007       16.78973        8.23171
H         38.80181       15.94183        9.46185
N         39.41248       18.04717       10.69133
C         39.67895       19.10032       11.65632
C         40.49489       20.22238       11.06270
O         40.79944       21.15750       11.78844
C         40.32677       18.41469       12.88708
C         39.32740       17.53442       13.61170
N         39.74218       16.67377       14.56649
O         38.13859       17.59070       13.33134
H         40.13406       17.32102       10.56064
H         38.74499       19.60976       11.98359
H         40.74332       19.14009       13.61414
H         41.16887       17.77699       12.53065
H         40.73796       16.59473       14.81048
H         39.06301       16.06222       15.03990
N         40.78640       20.26896        9.72792
C         41.48091       21.39148        9.12718
C         42.89432       21.47911        9.63467
O         43.65671       20.53928        9.45899
H         40.45926       19.52149        9.10051
H         40.91516       22.32522        9.34500
H         41.50788       21.26577        8.02469
N         43.30144       22.59027       10.30781
C         44.63133       22.75704       10.87781
C         44.96755       21.74140       11.97357
O         46.12185       21.69092       12.36242
C         45.74591       22.80969        9.81292
C         45.49163       23.74999        8.65648
C         45.61926       23.26917        7.34349
C         45.17831       25.10705        8.86387
C         45.46162       24.12919        6.25559
C         45.01009       25.96480        7.76969
C         45.16497       25.47887        6.46233
O         45.04296       26.30216        5.40131
H         42.63050       23.36295       10.43692
H         44.65279       23.75387       11.37200
H         45.95263       21.78773        9.43323
H         46.67064       23.16555       10.32133
H         45.86861       22.23111        7.16367
H         45.07169       25.50387        9.86505
H         45.58609       23.74756        5.25027
H         44.77322       27.00840        7.93693
H         44.88025       27.25005        5.50808
N         44.00320       20.94387       12.54326
C         44.16512       20.11365       13.74368
C         44.23499       21.01637       14.98564
O         43.31228       20.96510       15.78539
C         45.22656       18.97794       13.57428
C         44.72128       17.96518       12.50509
C         45.51127       18.26275       14.90471
C         45.76358       16.91063       12.11919
H         43.06162       20.98057       12.15970
H         43.20394       19.56649       13.89077
H         46.18578       19.40953       13.22514
H         44.47824       18.53378       11.58543
H         43.78911       17.44631       12.83558
H         46.21164       17.41351       14.76520
H         46.00859       18.96382       15.59921
H         44.57656       17.89065       15.37258
H         45.47547       16.44075       11.15440
H         46.75944       17.38315       11.98994
H         45.83374       16.10765       12.88330
N         45.23943       21.91721       15.17831
C         45.25366       22.87714       16.28096
C         45.44378       22.18132       17.60764
O         44.85991       22.60547       18.59738
C         46.39602       23.88116       16.08230
O         46.23849       24.53738       14.85266
H         46.01278       21.95559       14.52073
H         44.30453       23.46356       16.27677
H         47.36295       23.32809       16.10204
H         46.37469       24.63449       16.90014
H         47.11787       24.94383       14.63807
N         46.22181       21.05984       17.68110
C         46.41675       20.25443       18.87777
C         45.10464       19.98221       19.59566
O         45.06589       20.02713       20.81470
C         47.45371       20.90690       19.79958
H         46.65506       20.71402       16.81337
H         46.84268       19.28068       18.55101
H         48.40169       21.06396       19.24316
H         47.08901       21.88634       20.17574
H         47.66644       20.24182       20.66394
N         43.96453       19.78078       18.87276
C         42.65498       19.70300       19.50714
C         42.00549       18.37260       19.23920
O         42.51315       17.59127       18.44953
C         41.78652       20.86164       19.01112
H         44.01494       19.74606       17.84740
H         42.75049       19.79111       20.60907
H         42.26815       21.82654       19.27954
H         41.67249       20.82134       17.90711
H         40.77946       20.83448       19.47589
N         40.90248       18.01831       19.96870
C         40.26706       16.70818       19.86622
C         41.24697       15.58055       20.18888
O         40.94886       14.42996       19.89193
C         39.58359       16.54910       18.49446
C         38.52640       17.64601       18.27301
C         37.97121       17.52984       16.86718
O         37.18895       16.38398       16.69310
O         37.18791       18.62561       16.50653
H         40.52553       18.68402       20.65610
H         39.45057       16.64116       20.61766
H         39.08103       15.55761       18.44227
H         40.33862       16.59494       17.68098
H         39.01290       18.64116       18.34682
H         37.71551       17.59099       19.03488
N         42.42210       15.82891       20.84232
C         43.36607       14.78192       21.15587
H         44.24380       15.21776       21.68099
H         42.89394       14.02814       21.81990
H         43.71935       14.29839       20.22110
H         42.65744       16.78447       21.14707
Ca        35.89350       17.38760       15.11552
O         34.92285       20.21499       15.12037
H         34.67767       20.03839       16.06312
H         35.63602       20.89931       15.17055
O         34.02300       15.22614       15.36357
H         33.29892       14.77133       14.86559
H         33.74808       15.18475       16.31264
O         34.71944       17.52589       17.54500
H         34.95590       16.93250       18.30013
H         34.01288       18.12602       17.88506
O         35.39505       18.92215       12.46734
H         36.07114       19.44842       11.97597
H         34.74916       18.63183       11.77566
O         33.14403       17.76545       13.98098
H         32.49370       17.44759       13.30620
H         32.77980       18.62967       14.29638

Ca 1.70



