%chk=loop3.cluster87.chk
%nprocshared=48
%mem=10GB
%nosave
#b3lyp/svp scf=(tight,noincore) Test 
#IOP(5/87=12) Density=Current Pop=(MK,readradii) iop(6/33=2) iop(6/42=6)

loop3.cluster87 

   0  1 
C        113.93659       52.46945       11.81416
C        115.06494       52.05191       10.92900
O        115.05513       50.93378       10.44060
H        113.05786       51.81328       11.63717
H        114.24975       52.39016       12.87489
H        113.64296       53.51408       11.58178
N        116.05044       52.93643       10.61524
C        117.12051       52.57453        9.70254
C        118.07179       51.57555       10.31297
O        118.13689       50.44375        9.86787
C        117.90909       53.80536        9.14255
C        118.42789       54.89947       10.06885
O        118.08405       54.97124       11.36975
O        119.11870       55.78802        9.59807
H        115.98431       53.89685       10.97427
H        116.66743       52.09379        8.80529
H        117.25895       54.32753        8.41414
H        118.77835       53.39888        8.57398
N        118.94243       51.98356       11.25369
C        120.16712       51.28368       11.57621
C        120.99080       51.11631       10.29972
O        121.33868       52.10437        9.66408
C        120.88436       52.16121       12.61137
C        122.20133       51.65259       13.17971
C        122.73515       52.62067       14.25963
C        121.72740       52.86963       15.40548
N        122.32883       53.63859       16.48892
H        118.79230       52.89676       11.67680
H        119.92821       50.29329       12.02663
H        120.15346       52.24073       13.43960
H        121.05543       53.17465       12.17909
H        122.95551       51.56792       12.36608
H        122.04384       50.64903       13.62632
H        122.99012       53.60159       13.79779
H        123.66536       52.17928       14.67294
H        121.36318       51.89802       15.80648
H        120.85449       53.44695       15.02855
H        123.07736       53.07095       16.94645
H        122.72576       54.53303       16.12090
H        121.58922       53.85986       17.19521
N        121.31345       49.86888        9.86347
C        122.12854       49.60094        8.67378
C        121.34946       49.58419        7.35114
O        121.95998       49.38701        6.31205
C        122.82017       48.22924        8.84442
C        121.84918       47.08643        9.00688
O        121.46735       46.45717        8.03293
O        121.50683       46.67380       10.24242
H        121.02583       49.08012       10.45847
H        122.93800       50.36393        8.61413
H        123.45302       48.26824        9.75571
H        123.49623       48.01738        7.98893
N        119.99899       49.73143        7.32316
C        119.20119       49.48142        6.12644
C        117.76144       49.92285        6.34185
O        117.23904       49.67760        7.41439
H        119.51995       49.91759        8.19647
H        119.20636       48.38333        5.95651
H        119.65330       49.95568        5.24087
N        117.00429       50.53144        5.38200
C        117.37181       50.64158        3.97297
C        116.07499       50.70718        3.17896
O        115.34746       51.67548        3.35654
C        118.24858       51.89840        3.72525
C        118.74634       52.01587        2.30187
N        118.74263       53.21265        1.66631
O        119.21355       51.03639        1.73985
H        116.02857       50.75198        5.64560
H        117.93660       49.73383        3.68048
H        119.14564       51.85351        4.36742
H        117.70202       52.82268        4.01928
H        118.40842       54.06296        2.14299
H        119.12197       53.29582        0.71067
N        115.65258       49.72868        2.32135
C        116.36606       48.50975        1.95185
C        116.53026       47.47092        3.04425
O        116.27414       47.74521        4.20647
H        114.74275       49.87914        1.85703
H        117.34584       48.74744        1.49004
H        115.74314       48.01170        1.17583
N        116.90109       46.20174        2.69071
C        116.99926       45.09144        3.63586
C        118.12477       44.12334        3.24771
O        118.35894       43.91108        2.06558
C        115.70499       44.24577        3.58575
C        114.42956       44.92120        4.02742
C        114.04442       44.89144        5.37905
C        113.56492       45.49286        3.08064
C        112.81798       45.43077        5.77823
C        112.33502       46.02691        3.48071
C        111.95557       45.99106        4.83122
O        110.75996       46.47639        5.22392
H        116.99787       45.99267        1.68495
H        117.14457       45.45744        4.67667
H        115.82220       43.35644        4.23445
H        115.56175       43.83735        2.56175
H        114.68678       44.43724        6.12119
H        113.83663       45.50833        2.03281
H        112.52918       45.39543        6.82177
H        111.67087       46.45383        2.74000
H        110.12122       46.83183        4.58935
N        118.69712       43.34349        4.21182
C        119.53322       42.16891        3.94887
C        118.83629       40.86031        4.43296
O        119.38987       39.78381        4.26819
C        120.92506       42.37696        4.62319
C        120.81253       42.36746        6.17866
C        121.95609       41.37583        4.08021
C        122.13943       42.25698        6.92623
H        118.47889       43.55809        5.18200
H        119.68686       42.07028        2.85184
H        121.31395       43.37164        4.30675
H        120.19333       41.51708        6.53241
H        120.31760       43.30665        6.49013
H        121.74373       40.33695        4.39143
H        121.98589       41.43705        2.97074
H        122.97036       41.65302        4.43675
H        121.95642       42.35859        8.01732
H        122.57948       41.24965        6.75837
H        122.85260       43.03949        6.59933
N        117.59980       40.89927        5.01102
C        116.83781       39.74182        5.48397
C        117.41513       39.06482        6.73135
O        117.38854       37.84314        6.78463
C        115.37990       40.17618        5.72662
O        114.85615       40.66280        4.51686
H        117.12596       41.79666        5.05088
H        116.77941       38.98254        4.67330
H        115.33665       40.97578        6.49970
H        114.78026       39.30067        6.06141
H        113.88769       40.81595        4.65895
N        117.92785       39.77945        7.77972
C        118.51595       39.13825        8.96357
C        117.74858       39.51313       10.22199
O        118.28377       40.17982       11.10064
C        120.00380       39.49731        9.04320
H        117.94911       40.80654        7.71835
H        118.47158       38.02986        8.89330
H        120.14888       40.59141        9.16186
H        120.48018       38.96980        9.89898
H        120.51059       39.16637        8.11140
N        116.46272       39.08265       10.36910
C        115.60326       39.40417       11.50270
C        115.40102       40.90147       11.56743
O        115.63324       41.52116       12.59415
C        116.11439       38.79465       12.81860
H        116.05352       38.51360        9.61196
H        114.60971       38.94228       11.30657
H        117.06751       39.25669       13.14619
H        115.35799       38.94543       13.62077
H        116.26609       37.70178       12.69348
N        114.94917       41.53733       10.45487
C        114.75220       42.97667       10.37671
C        113.27468       43.31139       10.35619
O        112.93861       44.46346       10.12180
C        115.43732       43.50439        9.10856
C        116.96290       43.32395        9.12386
C        117.48743       43.69573        7.78265
O        116.95419       43.22808        6.79939
O        118.51274       44.55465        7.64303
H        114.72586       40.97357        9.62048
H        115.18264       43.49900       11.25079
H        115.22373       44.58418        8.95556
H        114.99982       42.94550        8.24871
H        117.20856       42.26033        9.30005
H        117.45193       43.93428        9.91343
N        112.32079       42.38984       10.65970
C        110.92818       42.76566       10.72718
H        110.31198       41.89845       11.03879
H        110.80224       43.57793       11.47719
H        110.58576       43.12734        9.73481
H        112.57869       41.41945       10.89603
Ca       116.11939       48.41748        9.67479
O        116.02448       46.93320        7.22029
H        115.51215       46.73449        6.40361
H        116.78776       46.31209        7.17265
O        113.77344       47.04711        9.09248
H        113.89620       46.63939        9.98455
H        112.79988       47.19713        9.01268
O        116.66586       48.70172       12.36304
H        116.68919       49.61924       12.73050
H        117.57805       48.34478       12.50618
O        114.21944       49.64496        8.01443
H        113.34263       49.95860        8.34942
H        114.07748       49.45023        7.05547
O        116.04457       45.97279       11.31272
H        117.00390       46.18716       11.40863
H        115.82239       45.49234       12.14715
O        118.52984       47.02147        9.51302
H        117.93820       46.36419        9.07832
H        119.09057       46.46262       10.10089

Ca 1.70



