%chk=loop3.cluster136.chk
%nprocshared=48
%mem=10GB
%nosave
#b3lyp/svp scf=(tight,noincore) Test 
#IOP(5/87=12) Density=Current Pop=(MK,readradii) iop(6/33=2) iop(6/42=6)

loop3.cluster136 

   0  1 
C         53.42543       24.85337       10.80671
C         52.97437       25.52670        9.53807
O         53.49412       26.57665        9.18911
H         54.23930       25.41766       11.30953
H         52.56296       24.79247       11.50703
H         53.77609       23.82303       10.59012
N         51.95671       24.97184        8.81991
C         51.31682       25.57072        7.64743
C         50.62637       26.88535        7.95879
O         50.86928       27.49369        8.99139
C         52.22068       25.67881        6.39302
C         52.51846       24.34822        5.74850
O         52.06297       23.19862        6.28453
O         53.12806       24.31589        4.69112
H         51.56144       24.08343        9.16362
H         50.47428       24.89561        7.38093
H         53.16194       26.22420        6.61636
H         51.67636       26.25933        5.61684
N         49.66142       27.32631        7.09971
C         48.81314       28.48876        7.32817
C         49.62491       29.77514        7.30186
O         50.53927       29.88481        6.49489
C         47.94013       28.30813        8.60220
C         47.05829       27.05838        8.56643
C         46.46082       26.71632        9.94555
C         47.54393       26.25630       10.94754
N         46.95039       25.67030       12.14950
H         49.47364       26.76957        6.25130
H         48.12515       28.55655        6.45554
H         47.22060       29.13865        8.74453
H         48.62799       28.28815        9.46384
H         47.63107       26.17485        8.21932
H         46.23663       27.23972        7.83619
H         45.76787       25.86549        9.77794
H         45.87431       27.56483       10.36392
H         48.20820       27.09706       11.24607
H         48.17233       25.48261       10.45480
H         47.69942       25.18211       12.69293
H         46.52439       26.41440       12.74695
H         46.22480       24.96343       11.88948
N         49.23376       30.85263        8.03988
C         49.73943       32.18619        7.79915
C         51.05407       32.42947        8.50953
O         51.24385       31.95468        9.62040
C         48.64640       33.19783        8.19311
C         48.90630       34.53464        7.57114
O         48.24611       34.89432        6.60904
O         49.90076       35.31298        8.02268
H         48.41202       30.77948        8.64512
H         49.85736       32.31353        6.69733
H         48.49604       33.26268        9.29480
H         47.68993       32.82728        7.75758
N         52.01484       33.17404        7.90035
C         53.30463       33.48342        8.49279
C         53.22576       34.42805        9.66830
O         52.50722       35.41461        9.60523
H         51.82966       33.53238        6.95173
H         53.90014       34.01907        7.72631
H         53.84882       32.55183        8.75692
N         54.06691       34.25037       10.72514
C         54.14824       35.17437       11.84852
C         55.25185       36.20857       11.66216
O         55.09919       37.31023       12.16695
C         54.36507       34.39455       13.15789
C         53.16941       33.53999       13.49412
N         52.37622       33.86402       14.54188
O         52.90620       32.56016       12.81220
H         54.73967       33.47068       10.69020
H         53.19899       35.75122       11.95145
H         54.52869       35.12273       13.97904
H         55.27768       33.75807       13.09597
H         52.56936       34.70641       15.10367
H         51.55223       33.29004       14.77148
N         56.38411       35.93861       10.94841
C         57.45552       36.91292       10.75895
C         58.10045       37.32847       12.06571
O         58.55698       36.46603       12.80151
H         56.49090       35.01644       10.50303
H         57.06448       37.80105       10.21812
H         58.24377       36.45146       10.12609
N         58.17316       38.65483       12.41150
C         58.76759       39.16137       13.65578
C         58.04360       38.71843       14.91234
O         58.53844       39.02290       15.98343
C         60.25565       38.79357       13.78506
C         61.07243       39.38497       12.68236
C         61.33842       38.63778       11.52986
C         61.59407       40.68235       12.81122
C         62.13313       39.17484       10.51740
C         62.39601       41.21538       11.80204
C         62.67562       40.45797       10.65448
O         63.47227       40.95027        9.68639
H         57.79750       39.35282       11.75256
H         58.70997       40.27471       13.64316
H         60.40844       37.69702       13.84923
H         60.66273       39.19305       14.74260
H         60.93479       37.63875       11.42303
H         61.39018       41.27144       13.69857
H         62.33827       38.58725        9.63294
H         62.80580       42.21108       11.91568
H         63.90553       41.81058        9.77790
N         56.89022       37.98746       14.85844
C         56.11846       37.50881       15.99960
C         55.36029       38.66656       16.63780
O         54.14096       38.67847       16.53448
C         56.95348       36.57602       16.93356
C         57.61259       35.46857       16.05959
C         56.07548       35.92333       18.01840
C         58.42167       34.42440       16.82437
H         56.52092       37.73271       13.94660
H         55.32407       36.85122       15.57379
H         57.74050       37.17233       17.44235
H         58.30320       35.94577       15.33622
H         56.82637       34.93029       15.48354
H         56.71288       35.37757       18.74628
H         55.50798       36.66094       18.59828
H         55.34589       35.21795       17.57059
H         59.21184       34.91098       17.43106
H         57.76415       33.81184       17.47535
H         58.89735       33.73497       16.09418
N         55.99326       39.71016       17.25606
C         55.27273       40.84599       17.81014
C         54.54163       40.43706       19.08328
O         53.70556       41.18490       19.56343
C         56.23977       42.00031       18.11374
O         57.08845       42.22544       17.01547
H         57.00477       39.70734       17.35324
H         54.55661       41.19733       17.02824
H         56.83637       41.72378       19.01398
H         55.67412       42.93213       18.32539
H         58.00322       42.36517       17.38060
N         54.80991       39.21734       19.65325
C         54.03479       38.61259       20.72253
C         52.56692       38.67412       20.35408
O         51.75024       39.13799       21.14406
C         54.45711       39.18085       22.08156
H         55.54696       38.63673       19.25718
H         54.30499       37.53333       20.75751
H         54.34416       40.28241       22.13052
H         53.88338       38.70139       22.90168
H         55.53347       38.93715       22.24332
N         52.18415       38.28637       19.09864
C         50.84266       38.45730       18.56372
C         50.27149       37.17512       18.00073
O         50.98157       36.18279       17.86803
C         50.88124       39.49262       17.43021
H         52.91029       37.92346       18.46260
H         50.15549       38.81819       19.36031
H         51.59091       39.16871       16.63827
H         49.88341       39.61244       16.95832
H         51.20601       40.48045       17.81616
N         48.94736       37.13764       17.66935
C         48.24341       35.98126       17.12621
C         48.51692       34.74024       17.95707
O         48.72861       33.67146       17.40157
C         48.58012       35.77935       15.63393
C         48.22463       37.01997       14.80497
C         48.72145       36.85820       13.40915
O         49.98799       37.20951       13.11771
O         48.03779       36.28870       12.57445
H         48.38027       37.97846       17.86557
H         47.15464       36.20040       17.19184
H         48.00825       34.91414       15.22674
H         49.66596       35.56081       15.53464
H         48.71556       37.92238       15.22461
H         47.12626       37.19829       14.80781
N         48.59146       34.83970       19.31427
C         48.95566       33.72326       20.16051
H         49.89703       33.97211       20.69552
H         48.15075       33.54866       20.90118
H         49.12563       32.78875       19.58629
H         48.43775       35.75348       19.76503
Ca        50.08029       36.68836       10.41572
O         50.43249       38.20725        8.18174
H         49.74683       38.87393        7.92926
H         51.27265       38.52315        7.76718
O         50.13182       34.29919       11.61064
H         50.06723       33.69558       12.38803
H         50.71810       33.83162       10.97099
O         52.24954       38.25695       10.95009
H         52.92210       38.73035       10.40138
H         52.51552       38.41824       11.88920
O         47.36985       36.67618        9.74910
H         47.21130       36.85386        8.78901
H         47.05410       35.74912        9.89347
O         48.93426       39.20082       10.80204
H         49.29276       39.90344       11.39900
H         48.32273       39.67279       10.18391

Ca 1.70



