%chk=loop1.cluster30.chk
%nprocshared=48
%mem=10GB
%nosave
#b3lyp/svp scf=(tight,noincore) Test 
#IOP(5/87=12) Density=Current Pop=(MK,readradii) iop(6/33=2) iop(6/42=6)

loop1.cluster30 

   0  1 
C         38.92664       32.16097       30.91508
C         37.95824       31.51018       29.98580
O         37.69063       32.06216       28.93734
H         39.87081       32.36505       30.37210
H         38.49355       33.11196       31.28425
H         39.15419       31.49933       31.77568
N         37.35740       30.34311       30.33363
C         36.43143       29.62148       29.46416
C         34.98860       29.83166       29.90597
O         34.21627       28.88289       29.94197
C         36.87541       28.13432       29.33154
C         37.05621       27.36448       30.62506
O         36.83618       27.93372       31.82112
O         37.45164       26.21150       30.58610
H         37.54589       29.98727       31.27346
H         36.45800       30.05705       28.43910
H         37.85921       28.11913       28.82371
H         36.15968       27.57844       28.69196
N         34.55165       31.09165       30.21817
C         33.15580       31.43452       30.47722
C         32.77459       32.66168       29.63634
O         33.37618       33.70344       29.86349
C         32.90829       31.76661       31.97111
C         32.86386       30.51840       32.87089
C         34.23557       30.05391       33.38160
C         34.12659       28.72987       34.16326
N         33.95023       27.57469       33.27592
H         35.24240       31.85554       30.25665
H         32.49608       30.58313       30.24785
H         31.88330       32.19162       32.02316
H         33.59586       32.54755       32.36717
H         32.30689       29.72193       32.33653
H         32.26846       30.76556       33.77813
H         34.59598       30.84840       34.07285
H         34.98569       29.94120       32.57801
H         33.28440       28.78670       34.88791
H         35.06227       28.57885       34.74509
H         33.75979       26.72020       33.84494
H         33.18088       27.71090       32.58564
H         34.82869       27.39876       32.75341
N         31.79528       32.68018       28.66679
C         31.02259       31.53907       28.15755
C         30.09809       30.94080       29.22552
O         30.17590       31.37636       30.36352
C         32.01102       30.55883       27.47677
C         32.78192       31.25763       26.39630
O         34.12626       31.24598       26.38363
O         32.18291       31.83867       25.50719
H         31.61923       33.58421       28.20097
H         30.34246       31.92374       27.36493
H         31.52829       29.71751       26.98330
H         32.70381       30.12835       28.20566
N         29.16692       29.96493       28.98339
C         28.77831       29.42895       27.68239
C         28.01570       28.13668       27.89423
O         26.97492       28.18422       28.53323
H         28.64466       29.61911       29.80484
H         29.61805       29.22447       27.03881
H         28.14528       30.16992       27.14602
N         28.44162       26.92151       27.42374
C         29.63422       26.68739       26.59600
C         30.93732       26.95357       27.34226
O         30.90879       27.24576       28.53405
C         29.63279       25.21857       26.10450
C         28.34162       24.87108       25.41332
O         28.04342       25.40251       24.35604
O         27.48884       24.00015       25.98787
H         27.83943       26.11210       27.64073
H         29.58182       27.35146       25.70456
H         29.74931       24.55626       26.98951
H         30.47587       25.01207       25.40930
N         32.13452       26.85830       26.69272
C         33.39443       27.15386       27.35008
C         34.57927       26.84361       26.47060
O         34.80939       25.67687       26.17653
H         32.14477       26.59315       25.69475
H         33.49512       26.57104       28.29139
H         33.40539       28.21949       27.61277
N         35.41693       27.83617       26.05628
C         36.63496       27.57839       25.28402
C         37.45978       28.85070       25.19463
O         36.88708       29.91369       24.97656
C         36.33244       27.05068       23.84637
C         37.57593       26.42373       23.21082
O         35.90562       28.07840       23.00574
H         35.20083       28.80319       26.35228
H         37.21693       26.80743       25.83617
H         35.55500       26.25911       23.84979
H         35.16012       28.51825       23.46800
H         38.46406       27.08368       23.29656
H         37.79412       25.45042       23.69795
H         37.39045       26.23924       22.13082
N         38.80897       28.82800       25.38679
C         39.59427       30.05301       25.41883
C         40.87703       29.95119       24.59986
O         41.81410       29.29252       25.01794
C         39.80588       30.47823       26.90472
C         40.64264       31.76694       27.09774
C         40.41912       29.36374       27.77103
C         40.10611       32.97423       26.34617
H         39.27065       27.92817       25.58759
H         38.99596       30.86889       24.96079
H         38.78497       30.65454       27.29877
H         41.69023       31.58790       26.77488
H         40.65614       32.02845       28.17635
H         41.47028       29.16243       27.48665
H         40.39192       29.66363       28.83991
H         39.84467       28.42126       27.69011
H         39.07676       33.20985       26.65248
H         40.74786       33.85723       26.53555
H         40.10891       32.76962       25.27432
N         40.97874       30.64383       23.42621
C         42.24479       30.84180       22.70614
C         42.55349       32.33314       22.51740
O         43.60749       32.65728       21.98069
C         42.21384       30.15832       21.32416
C         41.09933       30.70232       20.41485
O         42.06317       28.77422       21.49218
H         40.12899       31.08243       23.04730
H         43.08510       30.40448       23.28854
H         43.20200       30.36118       20.84713
H         42.19849       28.36221       20.59926
H         40.10102       30.40910       20.79977
H         41.14300       31.80738       20.33783
H         41.22217       30.28912       19.39291
N         41.67148       33.29261       22.91359
C         41.81998       34.72191       22.73142
C         41.59122       35.13063       21.29332
O         41.81993       34.34870       20.37790
C         43.10940       35.33649       23.32972
C         43.41185       34.77192       24.72397
O         42.93686       36.73013       23.40746
H         40.79985       33.01312       23.36027
H         40.97113       35.16041       23.30660
H         43.97283       35.11047       22.66448
H         43.79064       37.12092       23.72768
H         43.66831       33.69382       24.65439
H         44.28817       35.29170       25.16471
H         42.54063       34.89871       25.39562
N         41.06786       36.35543       21.03911
C         40.85993       36.89994       19.71548
C         39.40119       36.93963       19.24975
O         39.22492       36.67474       18.06957
C         41.54320       38.28154       19.59813
C         43.07491       38.13683       19.65738
C         43.83753       39.46859       19.64342
C         43.73456       40.22922       18.31191
N         44.66109       41.36277       18.30008
H         40.85929       36.95306       21.84030
H         41.36493       36.25663       18.95520
H         41.19163       38.93953       20.41991
H         41.27292       38.75360       18.63032
H         43.42455       37.51559       18.80140
H         43.35025       37.61015       20.59489
H         44.90819       39.22327       19.80920
H         43.49589       40.11335       20.48328
H         42.69526       40.59087       18.15233
H         44.00252       39.54890       17.47313
H         44.55576       41.89037       17.40383
H         44.46733       42.00390       19.10302
H         45.64556       41.01216       18.36376
N         38.28750       37.27978       19.98377
C         38.09818       37.51770       21.41355
C         38.91292       38.64492       22.00868
O         39.57543       38.46458       23.01826
C         37.94068       36.20089       22.23108
C         36.81767       35.32896       21.60119
C         36.01783       34.49831       22.57545
O         34.80865       34.66068       22.63874
O         36.58774       33.58068       23.37336
H         37.40965       37.31985       19.43919
H         37.07367       37.94312       21.50989
H         37.63179       36.50789       23.25438
H         38.86847       35.60237       22.32716
H         37.24790       34.70399       20.79062
H         36.06127       35.99420       21.12957
N         38.81110       39.88727       21.45836
C         39.43332       41.05544       22.04689
H         40.37374       41.29047       21.50934
H         38.74030       41.91825       21.94631
H         39.62608       40.92035       23.13245
H         38.22100       40.02037       20.62531
Ca        35.15564       32.45853       24.75479
O         33.39372       29.96991       23.83455
H         33.27083       29.61981       22.91723
H         32.99769       29.28196       24.42505
O         32.81190       32.31793       22.57850
H         32.04637       31.69968       22.46692
H         32.43881       33.20999       22.37555
O         34.03388       34.83402       25.68118
H         33.26434       34.69106       26.28673
H         34.16647       35.81389       25.65785
O         36.69295       33.22949       26.68091
H         36.45709       33.70853       27.51116
H         36.52491       32.27023       26.87065
O         36.24070       31.20515       22.35001
H         36.21507       30.24251       22.15764
H         36.59884       31.60479       21.52027

Ca 1.70



