%chk=loop3.cluster14.chk
%nprocshared=48
%mem=10GB
%nosave
#b3lyp/svp scf=(tight,noincore) Test 
#IOP(5/87=12) Density=Current Pop=(MK,readradii) iop(6/33=2) iop(6/42=6)

loop3.cluster14 

   0  1 
C         64.51623       52.10582       23.40618
C         63.83798       50.86475       23.89149
O         64.26610       49.77049       23.56434
H         65.43220       51.86020       22.83069
H         63.81623       52.67291       22.75634
H         64.79098       52.73541       24.27883
N         62.74880       50.97468       24.69104
C         61.99916       49.83462       25.18905
C         60.98223       49.44849       24.12907
O         59.85452       49.92232       24.14850
C         61.43004       50.21229       26.56348
C         60.44644       49.23065       27.07627
O         59.20353       49.66007       27.34815
O         60.74835       48.05852       27.23729
H         62.41166       51.92183       24.92395
H         62.66434       48.96112       25.37699
H         60.90850       51.19046       26.50006
H         62.26610       50.30947       27.28910
N         61.37312       48.61551       23.12371
C         60.59882       48.35000       21.91457
C         59.82124       47.04108       21.95248
O         58.88660       46.90201       21.17622
C         61.52261       48.42613       20.68048
C         62.58203       47.29496       20.66898
C         63.53711       47.40225       19.48257
C         64.57780       46.26179       19.44711
N         65.35783       46.15400       20.68384
H         62.32080       48.25192       23.17795
H         59.82978       49.15036       21.82854
H         62.03067       49.41676       20.69156
H         60.90707       48.36248       19.75848
H         62.07602       46.30714       20.65083
H         63.21167       47.34991       21.57219
H         64.06593       48.37869       19.53943
H         62.95409       47.37067       18.53737
H         65.26717       46.46491       18.59926
H         64.07229       45.28981       19.25615
H         64.76772       45.74675       21.44569
H         66.16001       45.50147       20.53005
H         65.73164       47.08802       20.96882
N         60.08630       46.08206       22.88801
C         59.08897       45.07139       23.24044
C         58.20405       45.63665       24.36160
O         57.15389       45.06804       24.62694
C         59.71360       43.68218       23.51089
C         60.83536       43.74612       24.50166
O         60.76159       44.65266       25.50468
O         61.86468       43.12227       24.29266
H         60.87555       46.23033       23.53055
H         58.38145       44.92397       22.39497
H         60.10178       43.26960       22.54977
H         58.93817       42.97580       23.87531
N         58.49040       46.85319       24.93038
C         57.47754       47.67596       25.56541
C         57.07776       47.31003       26.96835
O         56.15990       47.93538       27.48369
H         59.38022       47.31942       24.72719
H         56.58899       47.69192       24.90178
H         57.84829       48.71870       25.59478
N         57.70670       46.32839       27.66803
C         57.26622       45.93174       29.00475
C         57.45155       47.00931       30.08133
O         56.92253       46.84945       31.16995
C         57.97378       44.62701       29.41647
C         59.44649       44.80254       29.72724
N         59.95097       44.35302       30.89876
O         60.18976       45.33089       28.91441
H         58.47162       45.81037       27.21170
H         56.17873       45.70613       28.91866
H         57.86719       43.90583       28.57750
H         57.45753       44.19242       30.29780
H         59.34490       43.88122       31.58492
H         60.95510       44.45213       31.10547
N         58.23913       48.09970       29.85165
C         58.48577       49.14364       30.84148
C         59.94387       49.22272       31.27130
O         60.22035       49.92759       32.23444
H         58.70802       48.17080       28.95531
H         57.86191       48.98088       31.74416
H         58.19508       50.13226       30.42071
N         60.93290       48.52743       30.63055
C         62.33441       48.56954       31.04037
C         63.26201       48.55644       29.84757
O         63.21491       47.63165       29.04602
C         62.66577       47.34576       31.90514
C         62.13395       47.52111       33.29718
C         62.76724       48.42098       34.17435
C         61.02006       46.79648       33.73369
C         62.29186       48.58590       35.47586
C         60.53581       46.97439       35.03150
C         61.17319       47.86714       35.90810
O         60.71685       48.03892       37.16422
H         60.69144       47.91782       29.83828
H         62.54903       49.48850       31.63025
H         63.76643       47.20729       32.00277
H         62.26265       46.43900       31.40609
H         63.63741       48.98186       33.85083
H         60.52044       46.10931       33.06477
H         62.79297       49.27213       36.14805
H         59.66680       46.41836       35.35546
H         59.94289       47.55926       37.49134
N         64.19357       49.53600       29.71353
C         65.24955       49.49309       28.71395
C         66.33652       48.55053       29.21291
O         66.90790       48.80733       30.26413
C         65.81111       50.92953       28.49416
C         64.67932       51.85436       27.97296
C         67.00269       50.92002       27.51699
C         65.05441       53.33455       27.95404
H         64.21042       50.29797       30.41028
H         64.83690       49.14341       27.73956
H         66.16729       51.31642       29.47621
H         63.79121       51.77909       28.63545
H         64.37441       51.52999       26.95524
H         67.82909       50.29738       27.91349
H         66.69267       50.52208       26.52805
H         67.42243       51.93526       27.38209
H         65.30245       53.67269       28.98313
H         65.90860       53.53929       27.28107
H         64.18648       53.92291       27.58924
N         66.67688       47.43950       28.50083
C         67.75852       46.55287       28.91023
C         69.09163       47.07063       28.40877
O         69.13996       48.04299       27.67303
C         67.52204       45.11589       28.39775
O         67.54756       45.06785       26.99880
H         66.17967       47.23368       27.63375
H         67.78247       46.50154       30.01989
H         66.53995       44.74851       28.75106
H         68.31436       44.45077       28.81093
H         67.72026       44.12333       26.74540
N         70.22982       46.42814       28.78160
C         71.54603       46.81847       28.29696
C         71.64366       46.62708       26.79292
O         72.30944       47.41485       26.13003
C         72.61347       45.98468       29.01465
H         70.15677       45.63768       29.43594
H         71.72596       47.88360       28.56283
H         72.44784       46.03920       30.11377
H         72.55867       44.91921       28.70563
H         73.62748       46.38238       28.80169
N         71.01771       45.57779       26.18358
C         71.06078       45.35943       24.74450
C         70.16184       46.34607       23.99891
O         70.48872       46.72426       22.88505
C         70.69360       43.90627       24.42174
H         70.49382       44.90446       26.76806
H         72.11139       45.47429       24.39522
H         70.83132       43.69770       23.33950
H         71.37708       43.22991       24.98436
H         69.64930       43.67213       24.71506
N         69.00364       46.80013       24.56829
C         68.13577       47.79532       23.93343
C         68.81602       49.13632       23.77617
O         68.45847       49.86360       22.85786
C         66.81380       47.96623       24.72312
C         65.90177       46.77613       24.40889
C         64.53750       46.77173       25.01805
O         63.57024       46.66810       24.28659
O         64.35296       46.64851       26.33877
H         68.73848       46.44117       25.48913
H         67.88112       47.45077       22.90526
H         66.29980       48.88883       24.40105
H         67.02999       48.07684       25.80283
H         66.39433       45.82687       24.69004
H         65.74783       46.77610       23.31135
N         69.82467       49.52326       24.60440
C         70.52995       50.77629       24.43629
H         71.57549       50.55409       24.14074
H         70.07563       51.42220       23.65466
H         70.53078       51.33855       25.39245
H         70.12578       48.90068       25.36673
Ca        62.42591       45.58278       26.71350
O         64.15200       43.63873       25.87821
H         63.75490       42.73412       25.85295
H         64.89579       43.56539       26.52423
O         61.55431       42.90847       27.82756
H         61.76533       42.30522       27.07260
H         60.80422       42.46345       28.29444
O         64.02377       44.88337       29.36530
H         64.01163       43.93157       29.63549
H         64.33902       45.36647       30.17008

Ca 1.70



