%chk=loop1.cluster59.chk
%nprocshared=48
%mem=10GB
%nosave
#b3lyp/svp scf=(tight,noincore) Test 
#IOP(5/87=12) Density=Current Pop=(MK,readradii) iop(6/33=2) iop(6/42=6)

loop1.cluster59 

   0  1 
C         40.69822       39.90104       54.50928
C         39.68872       39.85650       53.40691
O         38.60683       40.40804       53.55925
H         41.60435       40.43533       54.15155
H         40.29469       40.43655       55.39462
H         40.97253       38.86670       54.79960
N         39.99664       39.23013       52.23720
C         39.10197       39.21507       51.08944
C         38.83810       37.77305       50.64574
O         39.36659       36.83951       51.23671
C         39.77986       40.06455       49.98726
C         38.89690       40.60344       48.89072
O         37.55533       40.54165       48.97834
O         39.40157       41.23990       47.98170
H         40.92763       38.79496       52.13824
H         38.13290       39.69212       51.35522
H         40.63589       39.48837       49.57531
H         40.18920       40.98434       50.45680
N         38.01223       37.53205       49.59823
C         37.67122       36.21837       49.08405
C         38.88973       35.39326       48.62967
O         39.00697       34.27645       49.11261
C         36.62879       36.40479       47.95905
C         36.05594       35.09483       47.42504
C         35.10611       35.39175       46.26508
C         34.61669       34.11381       45.59569
N         33.76169       34.43403       44.45376
H         37.56380       38.32821       49.14906
H         37.15699       35.65430       49.89572
H         37.08491       36.97540       47.12666
H         35.78010       37.01245       48.35158
H         35.51441       34.55852       48.23545
H         36.88619       34.46074       47.05272
H         35.66607       35.95631       45.49659
H         34.24321       36.00124       46.62003
H         34.05614       33.49145       46.32630
H         35.50248       33.54233       45.23874
H         33.50473       33.54890       43.96223
H         32.89190       34.91293       44.78228
H         34.27073       35.05593       43.78278
N         39.81982       35.79127       47.69775
C         39.88829       37.09459       47.04324
C         41.29893       37.69453       47.20015
O         42.24468       36.98669       47.52217
C         39.57391       36.87579       45.54112
C         39.37296       38.08373       44.65475
O         39.14095       39.31771       45.13344
O         39.47897       37.94517       43.44803
H         40.53377       35.09613       47.42307
H         39.14944       37.78373       47.47638
H         38.66153       36.25698       45.42245
H         40.41968       36.28316       45.12159
N         41.48712       39.01564       46.95474
C         42.76837       39.70979       46.97436
C         42.74735       40.93817       46.05870
O         43.64643       41.76102       46.15706
H         40.64747       39.58003       46.85312
H         43.61487       39.04518       46.68788
H         42.94002       40.06147       48.01323
N         41.75464       41.11092       45.12837
C         41.62537       42.26159       44.24990
C         42.89114       42.36620       43.42281
O         43.16204       41.44322       42.66679
C         40.40052       42.08642       43.30555
C         39.06576       42.12863       44.00706
O         38.97442       42.49128       45.30122
O         38.04992       41.86014       43.38548
H         41.08119       40.37008       44.99516
H         41.41373       43.15264       44.85828
H         40.49606       41.10844       42.78510
H         40.37863       42.88348       42.53348
N         43.74038       43.43313       43.48829
C         43.52137       44.62050       44.30383
C         42.92297       45.73758       43.48803
O         42.60024       46.77600       44.04810
H         44.54970       43.44052       42.84818
H         44.49274       44.95595       44.71877
H         42.91415       44.42627       45.20026
N         42.77448       45.60382       42.13896
C         42.31631       46.65555       41.26451
C         43.32895       47.80415       41.29860
O         42.95322       48.93167       41.55246
C         40.82096       47.04399       41.52527
C         39.90785       45.84165       41.75695
O         40.29430       47.69743       40.40956
H         43.05633       44.73202       41.67270
H         42.34840       46.24232       40.23080
H         40.73275       47.68708       42.42927
H         40.83198       48.50200       40.30400
H         38.87356       46.20714       41.94684
H         39.88806       45.18482       40.86140
H         40.22909       45.26575       42.64537
N         44.65583       47.54006       41.05250
C         45.72196       48.51676       40.77211
C         45.52447       49.08566       39.38255
O         46.32654       48.81198       38.50462
C         45.96596       49.63801       41.83530
C         46.24109       49.07725       43.25017
C         47.12565       50.56247       41.38089
C         47.46359       48.15970       43.35952
H         44.92523       46.54968       40.96453
H         46.66694       47.93407       40.70264
H         45.06622       50.28499       41.91924
H         45.34613       48.51659       43.58971
H         46.38774       49.93150       43.94972
H         48.05400       49.98364       41.18807
H         46.86276       51.09412       40.44042
H         47.34328       51.34242       42.14072
H         47.35273       47.26574       42.71436
H         48.39676       48.69725       43.09112
H         47.55977       47.80571       44.40655
N         44.45628       49.87976       39.12462
C         44.17281       50.44890       37.81973
C         43.96179       51.93974       37.98584
O         43.93737       52.43140       39.10141
C         42.90447       49.76153       37.23235
C         41.64633       50.05879       38.05640
O         43.08224       48.36644       37.19918
H         43.81428       50.10298       39.87885
H         45.01951       50.26877       37.12343
H         42.70410       50.12258       36.19965
H         43.93477       48.18167       36.72627
H         41.37351       51.12962       38.02527
H         40.78365       49.46212       37.69161
H         41.82936       49.81314       39.10601
N         43.76694       52.71607       36.89122
C         43.38901       54.11986       37.03352
C         41.90897       54.23014       37.32336
O         41.13406       53.39120       36.88806
C         43.70131       54.93747       35.76284
C         45.21242       55.08227       35.52900
O         43.03488       54.40636       34.64241
H         43.83798       52.28607       35.96306
H         43.96580       54.57476       37.86976
H         43.32157       55.97478       35.89535
H         43.54433       53.62695       34.30681
H         45.63037       55.81633       36.25352
H         45.74395       54.11696       35.66245
H         45.40080       55.46331       34.50445
N         41.44890       55.31974       37.99925
C         40.03604       55.61981       38.19200
C         39.26855       54.61110       39.02613
O         38.05134       54.72291       39.08246
C         39.32695       55.89583       36.84644
C         39.96668       57.08870       36.11790
C         39.03029       57.62443       35.02671
C         39.38928       59.04711       34.56255
N         39.27875       60.02460       35.65788
H         42.13375       56.00372       38.34909
H         39.96666       56.56979       38.76552
H         38.28642       56.19254       37.10659
H         39.26519       55.00366       36.18637
H         40.96157       56.82301       35.69532
H         40.11283       57.88515       36.87264
H         37.99474       57.69137       35.42647
H         39.01335       56.91750       34.16913
H         38.65441       59.31615       33.77290
H         40.40596       59.08930       34.11310
H         38.50569       59.77563       36.31882
H         40.17814       60.08289       36.18809
H         39.06871       60.96966       35.26401
N         39.89318       53.62864       39.73564
C         39.15114       52.66126       40.53729
C         40.05646       51.55823       41.04184
O         39.73769       50.42467       40.74147
C         38.28330       53.27970       41.66458
C         37.50545       52.18258       42.41825
C         36.41646       52.76311       43.26936
O         35.49783       53.37709       42.74876
O         36.42363       52.57586       44.60166
H         40.91874       53.54633       39.68481
H         38.42216       52.16808       39.85159
H         37.53430       53.94889       41.20110
H         38.86967       53.88366       42.38511
H         38.21352       51.59674       43.04496
H         37.02282       51.48765       41.69620
N         41.19096       51.73936       41.78537
C         41.72395       53.00049       42.25173
H         42.71502       53.17223       41.77828
H         41.07344       53.86433       42.04185
H         41.88076       52.93122       43.34945
H         41.73610       50.90417       42.02861
Ca        37.35594       40.24850       46.12815
O         34.72180       40.34097       47.19283
H         34.27805       39.54505       47.57696
H         34.09604       40.65926       46.49650
O         35.88214       38.33562       45.17886
H         35.99984       38.02414       44.24856
H         34.92188       38.22286       45.38423
O         35.18418       41.84238       44.35379
H         35.16053       42.26664       43.46021
H         34.47382       42.30592       44.86392
O         36.69911       42.74756       47.43416
H         36.43415       43.50806       46.86061
H         37.05548       43.16111       48.25995

Ca 1.70



