%chk=loop4.cluster22.chk
%nprocshared=48
%mem=10GB
%nosave
#b3lyp/svp scf=(tight,noincore) Test 
#IOP(5/87=12) Density=Current Pop=(MK,readradii) iop(6/33=2) iop(6/42=6)

loop4.cluster22 

   -3  1 
C         67.80463       23.54791       65.87404
C         68.48356       23.25002       67.17590
O         68.88604       24.17402       67.86760
H         66.89599       24.16046       66.04607
H         68.51115       24.09951       65.22049
H         67.50805       22.61216       65.35322
N         68.65654       21.95838       67.56918
C         69.35596       21.56068       68.78720
C         68.62893       22.09900       69.99789
O         69.22883       22.67447       70.89486
C         70.84852       21.93506       68.70627
C         71.37411       21.48304       67.37509
O         71.76570       22.38710       66.46213
O         71.33197       20.30244       67.06880
H         68.28579       21.20440       66.96999
H         69.29474       20.44863       68.83890
H         71.42125       21.45610       69.52960
H         70.97048       23.03564       68.78827
N         67.28585       21.92056       70.05439
C         66.42350       22.34918       71.14064
C         65.87546       21.07807       71.75090
O         65.43653       20.21892       70.99786
C         65.25163       23.20132       70.55831
C         65.78337       24.52231       69.95157
C         64.17674       23.48581       71.62925
C         64.72354       25.29697       69.16296
H         66.83593       21.42266       69.26992
H         66.96533       22.96162       71.88754
H         64.77032       22.60659       69.74924
H         66.59843       24.29179       69.23795
H         66.19881       25.17044       70.75494
H         63.76255       22.53901       72.03558
H         64.60109       24.08301       72.46159
H         63.31378       24.03160       71.20361
H         64.31185       24.65931       68.35131
H         63.89453       25.64617       69.81031
H         65.19013       26.19291       68.70338
N         65.79333       20.86428       73.09069
C         66.20893       21.79779       74.13493
C         67.70907       21.99210       74.17123
O         68.15735       23.12703       74.28016
C         65.70510       21.34884       75.52604
C         66.13067       19.96152       75.93757
O         67.04307       19.80003       76.91132
O         65.61866       18.97767       75.42704
H         65.34580       19.98573       73.37199
H         65.73115       22.78905       73.97666
H         64.59425       21.40367       75.56068
H         66.08677       22.08239       76.27053
N         68.55345       20.92641       74.08654
C         69.99326       21.09752       74.12642
C         70.46524       21.60876       75.46350
O         69.70276       21.62314       76.42223
H         68.16799       19.98166       73.94515
H         70.28958       21.81519       73.33366
H         70.50062       20.12847       73.92571
N         71.75066       22.03574       75.59683
C         72.29034       22.47755       76.87556
C         71.83389       23.90092       77.23323
O         72.01689       24.31597       78.36850
C         73.81533       22.23163       76.86557
C         74.42691       22.12323       78.23098
O         75.45764       22.72072       78.49126
O         73.90530       21.26767       79.13293
H         72.37169       21.99558       74.77363
H         71.87500       21.78634       77.64249
H         74.34326       22.96879       76.22034
H         73.97022       21.22578       76.41639
N         71.16777       24.67403       76.31794
C         70.48802       25.92715       76.63341
C         71.33754       27.12201       77.02218
O         70.76917       28.19939       77.14517
H         71.04348       24.31971       75.35860
H         69.72603       25.74624       77.41834
H         69.94231       26.23639       75.71100
N         72.69297       27.04890       77.17503
C         73.53851       28.22847       77.34985
C         73.33791       29.13831       76.16021
O         73.17928       30.33937       76.32027
C         73.31871       28.96372       78.69964
C         73.80071       28.11271       79.87875
C         73.76788       28.83243       81.20570
N         74.30823       28.23996       82.29487
O         73.28364       29.95167       81.30125
H         73.16790       26.14521       77.05646
H         74.59883       27.89346       77.31185
H         72.25742       29.26893       78.83108
H         73.93716       29.88969       78.69781
H         74.86191       27.85014       79.68473
H         73.20306       27.17947       79.95020
H         74.74018       27.30720       82.21746
H         74.31743       28.72267       83.20527
N         73.32223       28.59146       74.91249
C         73.06647       29.38370       73.71920
C         74.31634       29.53530       72.92681
O         75.24351       28.75433       73.07195
C         71.91867       28.81961       72.83997
C         72.08746       27.32066       72.50349
C         70.57181       29.11329       73.49886
H         73.51063       27.58514       74.81139
H         72.79944       30.42095       74.01303
H         71.90527       29.37212       71.87307
H         71.24982       26.96752       71.86633
H         73.03311       27.15607       71.94281
H         72.09518       26.67866       73.40871
H         69.73980       28.74992       72.86087
H         70.50444       28.65662       74.50475
H         70.46015       30.21680       73.59668
N         74.43781       30.64492       72.14942
C         75.66215       30.95825       71.45817
C         75.41399       31.32723       70.02751
O         74.44456       31.98687       69.69118
C         76.41805       32.09507       72.15272
C         76.94759       31.65330       73.49395
N         77.80704       30.60685       73.58341
O         76.60978       32.24934       74.50459
H         73.66918       31.32969       72.12349
H         76.32949       30.07475       71.45334
H         75.75830       32.98565       72.24960
H         77.29686       32.37657       71.53218
H         78.11146       30.09573       72.74119
H         78.17133       30.30557       74.49808
N         76.35659       30.95152       69.13857
C         76.34864       31.29626       67.73784
C         77.39078       30.42312       67.07661
O         78.53916       30.41458       67.49501
C         76.73752       32.77088       67.49628
C         77.04071       32.93778       66.01918
C         76.01300       32.98713       65.06400
C         78.37979       32.88843       65.59098
C         76.32656       32.99584       63.69875
C         78.68693       32.87256       64.23331
C         77.66222       32.92703       63.28086
O         77.95288       32.89640       61.96506
H         77.14402       30.39414       69.49462
H         75.34996       31.08764       67.29201
H         77.66741       32.95449       68.07859
H         75.97374       33.49269       67.85610
H         74.97602       32.99928       65.37583
H         79.18286       32.80209       66.31291
H         75.53203       33.03039       62.96464
H         79.72137       32.79379       63.92350
H         78.86644       32.82619       61.65116
N         77.03542       29.69288       65.99878
C         77.98472       28.86375       65.27819
C         78.09836       29.29531       63.80791
O         79.18412       29.72371       63.43817
C         77.68291       27.36419       65.48369
C         77.88926       26.86907       66.92773
C         76.84526       27.34434       67.90080
O         75.66143       27.14209       67.68084
O         77.21704       27.92991       69.05388
H         76.06235       29.75728       65.69625
H         79.00511       28.99994       65.69971
H         78.39621       26.80236       64.84514
H         76.65994       27.07750       65.19341
H         78.90544       27.14638       67.28544
H         77.82263       25.76259       66.90643
N         77.09531       29.19870       62.87613
C         75.75939       28.67449       63.13340
C         74.65567       29.56634       62.60043
O         74.89615       30.40738       61.74463
C         75.63511       27.24395       62.60335
C         75.79007       27.11792       61.09177
C         75.64547       25.67396       60.72087
O         76.53306       24.76850       61.17768
O         74.70873       25.30968       60.03023
H         77.32417       29.46243       61.90464
H         75.56927       28.57305       64.19254
H         74.64281       26.84187       62.90516
H         76.41882       26.61934       63.07919
H         76.78773       27.47921       60.76014
H         75.00535       27.72452       60.59203
N         73.39147       29.41480       63.08533
C         72.26617       30.16425       62.57436
H         71.36737       29.94548       63.19076
H         72.46699       31.25503       62.61274
H         72.05640       29.85211       61.52933
H         73.22473       28.74549       63.85166
Ca        72.05800       21.59668       64.37688
O         74.03401       23.59969       64.23789
H         74.78382       23.68148       63.59843
H         74.04076       24.44790       64.74568
O         72.55530       18.73250       64.71856
H         72.52149       18.00310       65.38652
H         71.75221       18.59474       64.15575
O         74.45813       20.88334       62.71915
H         75.00413       20.30843       63.31172
H         75.05880       21.63261       62.48044
O         74.35299       21.14715       66.01342
H         75.24569       21.48692       65.75609
H         74.48060       20.73243       66.90235
O         71.38648       23.34850       62.40139
H         71.84613       24.21011       62.24371
H         70.76553       23.23874       61.63961

Ca 1.70



