%chk=loop2.cluster235.chk
%nprocshared=48
%mem=10GB
%nosave
#b3lyp/svp scf=(tight,noincore) Test 
#IOP(5/87=12) Density=Current Pop=(MK,readradii) iop(6/33=2) iop(6/42=6)

loop2.cluster235 

   -2  1 
C         61.80415       67.40652       10.16266
C         60.58292       68.00161       10.77004
O         60.69019       68.92155       11.56743
H         62.66391       67.54934       10.84757
H         61.64366       66.31529       10.03433
H         62.00296       67.87106        9.17522
N         59.36382       67.51347       10.43508
C         58.15339       68.00135       11.05296
C         58.03297       67.41641       12.45698
O         57.97219       66.20354       12.60108
C         56.96385       67.61882       10.17430
C         55.67133       68.15802       10.66637
O         54.65334       67.74786       10.17125
O         55.61065       69.12535       11.59581
H         59.30031       66.75847        9.73419
H         58.18347       69.10400       11.06973
H         56.89938       66.51213       10.11237
H         57.10203       68.01920        9.14337
N         58.02120       68.23853       13.54193
C         57.88457       67.76904       14.91932
C         56.49474       67.22820       15.23974
O         56.31993       66.64008       16.29868
C         58.16929       68.93752       15.86767
H         58.16022       69.23633       13.38166
H         58.64364       66.97379       15.09000
H         59.17704       69.35136       15.65235
H         57.41922       69.74337       15.70542
H         58.13126       68.61743       16.92900
N         55.45834       67.40192       14.37281
C         54.11506       66.88978       14.59559
C         53.86266       65.70590       13.66112
O         52.81968       65.07767       13.77406
C         53.07370       68.00457       14.32586
C         53.50269       69.34925       14.83818
O         54.12191       70.09545       14.09826
O         53.19674       69.74831       16.08621
H         55.62574       67.90116       13.50309
H         54.01490       66.54304       15.64706
H         52.05259       67.74824       14.68415
H         52.98995       68.11963       13.22565
N         54.78021       65.35403       12.69576
C         54.62292       64.21288       11.80574
C         53.39890       64.30455       10.91911
O         52.99582       63.29884       10.35368
H         55.63442       65.90018       12.58151
H         54.55060       63.30885       12.44267
H         55.52368       64.11120       11.15943
N         52.73059       65.47951       10.79443
C         51.38153       65.59349       10.26198
C         51.38029       65.86510        8.75551
O         50.49230       65.40371        8.05519
C         50.74070       66.75962       11.04062
C         49.25307       66.87773       10.96300
N         48.65527       67.95989       11.50782
O         48.57916       65.99964       10.44549
H         53.11401       66.30208       11.27591
H         50.81819       64.66378       10.50253
H         51.21649       67.70503       10.70333
H         50.96678       66.63991       12.12706
H         49.22674       68.70724       11.93259
H         47.63171       68.05889       11.48914
N         52.38275       66.60335        8.20586
C         52.56661       66.87231        6.79041
C         52.63173       68.36022        6.50632
O         52.06330       68.78426        5.51103
H         53.10305       66.94383        8.82714
H         51.78025       66.40290        6.16096
H         53.54121       66.42579        6.49932
N         53.34933       69.21001        7.30593
C         53.42519       70.65692        7.08305
C         54.65534       71.23912        7.76815
O         55.11606       70.70402        8.76863
C         52.11621       71.37380        7.53138
C         52.13586       72.89587        7.30479
O         50.99512       70.83247        6.88461
H         53.87213       68.81135        8.09364
H         53.59434       70.81877        5.99560
H         51.98298       71.19644        8.61898
H         51.13378       70.95120        5.90879
H         51.17220       73.33612        7.64035
H         52.94526       73.38461        7.88041
H         52.28411       73.13358        6.23150
N         55.28758       72.30813        7.21198
C         56.58668       72.79063        7.65471
C         56.44908       74.18073        8.26437
O         56.01970       75.11141        7.59381
C         57.55836       72.74387        6.43749
C         57.81962       71.28493        5.94834
C         58.87762       73.48203        6.70437
C         58.88328       70.50528        6.73669
H         54.86151       72.76148        6.38739
H         57.01114       72.12752        8.43496
H         57.05076       73.27760        5.60294
H         58.18269       71.32567        4.89979
H         56.86926       70.70781        5.93843
H         59.37651       73.06504        7.60290
H         59.55172       73.38936        5.82802
H         58.69335       74.56128        6.87585
H         59.87576       70.99514        6.62665
H         58.63215       70.42339        7.81282
H         58.98723       69.48565        6.30821
N         56.86239       74.37956        9.54992
C         56.96654       75.67281       10.21066
C         58.35936       76.22089        9.98013
O         59.12969       75.57175        9.29492
C         56.72091       75.47672       11.72609
C         55.30263       75.05158       12.02996
O         55.01919       73.87766       12.63441
O         54.38415       75.79494       11.73501
H         57.28744       73.58624       10.03616
H         56.24776       76.40436        9.77884
H         56.89454       76.43452       12.25885
H         57.45321       74.73501       12.12161
N         58.75560       77.43387       10.45682
C         60.06466       77.98634       10.12666
C         61.23170       77.19646       10.74474
O         62.07788       76.76829        9.97917
C         60.11633       79.51542       10.34044
C         61.38890       80.13511        9.79380
C         61.79473       79.90232        8.46119
C         62.17617       80.96475       10.60934
C         62.97618       80.46240        7.97377
C         63.34895       81.53931       10.10684
C         63.75264       81.28052        8.79420
H         58.07743       78.01335       10.97868
H         60.16294       77.87570        9.02669
H         59.96908       79.78601       11.40266
H         59.26518       79.95684        9.77709
H         61.21057       79.28194        7.79665
H         61.87677       81.17500       11.62823
H         63.28757       80.26161        6.95631
H         63.94689       82.18441       10.73631
H         64.66514       81.71713        8.41034
N         61.34640       76.92705       12.09098
C         62.41919       76.08671       12.62983
C         62.55121       74.73979       11.92687
O         63.66105       74.24023       11.78575
C         61.96993       75.84803       14.07958
C         61.19723       77.10754       14.40670
C         60.42949       77.38121       13.11066
H         63.37115       76.66071       12.58665
H         61.22870       75.01849       14.11121
H         62.80324       75.60640       14.77701
H         60.56811       77.05289       15.32183
H         61.94939       77.91729       14.54182
H         59.48768       76.79580       13.03633
H         60.22399       78.46714       13.08379
N         61.44373       74.08910       11.47140
C         61.48395       72.81041       10.76033
C         62.19929       72.98829        9.43147
O         63.12316       72.24534        9.13830
C         60.04548       72.26926       10.57144
C         59.44094       71.96668       11.95324
C         58.01883       71.54254       11.96187
O         57.28961       71.38267       10.85539
O         57.46697       71.40325       13.03423
H         60.52698       74.54468       11.61353
H         62.02441       72.04860       11.36648
H         60.04790       71.33149        9.97535
H         59.43696       73.02324       10.03540
H         59.46878       72.87871       12.58391
H         60.03071       71.18230       12.46512
N         61.82323       73.99003        8.59222
C         62.49227       74.31636        7.35374
H         63.45631       73.78340        7.24010
H         61.82179       74.08753        6.50095
H         62.69419       75.41015        7.34179
H         61.04647       74.58181        8.86311
Ca        55.26150       71.99985       11.43175
O         52.63348       72.24177       13.36610
H         52.13451       71.85092       14.12666
H         52.33800       73.18428       13.33044
O         53.04849       73.02844       10.35496
H         52.07571       73.14047       10.22991
H         53.42825       73.93390       10.24012
O         56.03277       72.49128       15.12972
H         57.02032       72.44649       15.09535
H         55.74870       71.55111       15.02942
O         52.60914       70.19014       10.98066
H         53.16485       69.50667       10.54055
H         52.33966       69.77317       11.83390

Ca 1.70



