%chk=loop1.cluster20.chk
%nprocshared=48
%mem=10GB
%nosave
#b3lyp/svp scf=(tight,noincore) Test 
#IOP(5/87=12) Density=Current Pop=(MK,readradii) iop(6/33=2) iop(6/42=6)

loop1.cluster20 

   0  1 
C         58.86036      -22.14332       32.33434
C         59.13395      -23.61059       32.24382
O         58.80518      -24.21801       31.23821
H         57.93096      -21.96499       32.91612
H         59.71226      -21.62466       32.82249
H         58.73146      -21.72269       31.31544
N         59.72524      -24.26660       33.27355
C         59.99236      -25.69793       33.25566
C         59.13669      -26.41714       34.29473
O         59.39907      -27.56770       34.59507
C         61.50442      -25.97187       33.46247
C         62.07622      -25.44127       34.73650
O         62.50777      -26.29690       35.68504
O         62.21809      -24.23905       34.88906
H         59.96665      -23.72531       34.12074
H         59.73844      -26.15140       32.27387
H         62.09428      -25.54501       32.62247
H         61.66181      -27.06692       33.46610
N         58.07801      -25.77187       34.87663
C         57.35479      -26.30867       36.01622
C         55.83313      -26.39381       35.76864
O         55.11588      -25.67472       36.45103
C         57.66251      -25.33127       37.19181
C         59.16222      -25.29982       37.54381
C         59.47686      -24.27483       38.64564
C         60.97253      -24.23714       39.01727
N         61.80267      -23.75340       37.91686
H         57.82700      -24.82359       34.57479
H         57.72461      -27.30442       36.31974
H         57.08943      -25.62189       38.09803
H         57.34338      -24.30455       36.89340
H         59.74113      -25.03314       36.63845
H         59.46776      -26.31199       37.88548
H         58.90209      -24.54398       39.55665
H         59.16153      -23.25691       38.32406
H         61.31506      -25.25194       39.32291
H         61.10455      -23.55283       39.88088
H         62.77889      -23.58588       38.25032
H         61.84188      -24.49256       37.19527
H         61.41949      -22.86814       37.51097
N         55.20490      -27.24196       34.88247
C         55.77542      -28.19485       33.92746
C         56.51959      -29.38029       34.54059
O         56.72670      -29.39072       35.74332
C         56.48485      -27.45017       32.76595
C         55.62895      -27.52645       31.53797
O         56.04695      -28.05615       30.52454
O         54.36717      -27.06028       31.58030
H         54.17282      -27.19260       34.87506
H         54.89063      -28.71597       33.49265
H         57.50192      -27.85060       32.56927
H         56.59270      -26.37069       32.98170
N         56.88684      -30.47853       33.80067
C         56.59444      -30.62958       32.37861
C         57.10710      -31.93594       31.80979
O         56.86371      -32.96755       32.41802
H         57.35271      -31.25807       34.29108
H         57.04783      -29.81436       31.82418
H         55.49327      -30.60986       32.22971
N         57.76050      -32.02125       30.60789
C         58.04333      -30.89137       29.71316
C         59.07658      -29.91191       30.25985
O         59.16921      -28.80836       29.73737
C         58.48348      -31.40285       28.31914
C         59.55195      -32.47122       28.37051
O         60.73441      -32.24631       28.95855
O         59.31723      -33.58018       27.92081
H         58.00269      -32.96865       30.28437
H         57.09524      -30.32517       29.55466
H         58.80543      -30.55179       27.67955
H         57.59804      -31.86893       27.83834
N         59.87711      -30.23509       31.31603
C         60.81277      -29.28846       31.90330
C         61.98009      -28.88209       31.01362
O         62.73509      -28.00638       31.41130
H         59.79102      -31.16191       31.75167
H         61.23455      -29.72244       32.83351
H         60.23547      -28.38657       32.18039
N         62.21437      -29.47810       29.81034
C         63.26684      -29.02597       28.90576
C         62.88243      -27.66489       28.41966
O         61.88628      -27.57029       27.72740
C         63.44386      -29.97217       27.67235
C         64.54165      -29.45111       26.73651
O         62.27416      -30.07516       26.89343
H         61.62050      -30.25083       29.53156
H         64.23090      -29.00664       29.46384
H         63.74959      -30.97961       28.03436
H         61.58266      -30.54473       27.41544
H         65.48769      -29.27056       27.28553
H         64.72178      -30.18413       25.92257
H         64.21759      -28.49854       26.26131
N         63.61543      -26.56061       28.71386
C         63.19773      -25.25332       28.23429
C         64.11142      -24.79492       27.12594
O         65.18896      -24.27514       27.37334
C         62.91476      -24.24996       29.37570
C         62.49501      -22.88614       28.77587
C         64.09081      -24.11395       30.35985
C         61.75833      -22.01098       29.78291
H         64.48591      -26.65576       29.25802
H         62.20325      -25.33716       27.74502
H         62.05044      -24.66586       29.94340
H         61.78529      -23.04395       27.93285
H         63.38853      -22.36042       28.37237
H         63.86358      -23.38784       31.16317
H         64.28391      -25.08331       30.86426
H         65.01420      -23.78837       29.84090
H         62.36916      -21.80545       30.68193
H         61.49006      -21.04560       29.30689
H         60.82211      -22.52512       30.08541
N         63.72137      -25.03005       25.84246
C         64.45759      -24.60218       24.66440
C         63.53454      -23.86457       23.67824
O         63.99209      -23.50193       22.60401
C         65.10917      -25.85590       24.02057
C         64.08723      -26.86219       23.47222
O         65.90406      -26.51409       24.97462
H         62.86610      -25.58668       25.69412
H         65.28510      -23.91698       24.95351
H         65.75210      -25.54963       23.16383
H         66.67090      -25.91747       25.17780
H         63.52196      -26.41966       22.62933
H         64.61433      -27.76312       23.09576
H         63.37167      -27.19494       24.25085
N         62.21470      -23.63076       23.98245
C         61.20100      -23.08546       23.07905
C         60.82566      -24.08762       22.00667
O         61.55931      -25.04087       21.78622
C         61.55625      -21.69298       22.47859
C         61.97776      -20.70112       23.55937
O         60.42994      -21.17122       21.81809
H         61.86425      -23.88194       24.91436
H         60.28329      -22.96576       23.69598
H         62.39706      -21.79624       21.75072
H         60.75297      -20.64776       21.03794
H         62.04942      -19.68104       23.12423
H         61.23192      -20.68848       24.38104
H         62.97337      -20.97636       23.96521
N         59.68355      -23.90963       21.27649
C         59.39018      -24.70983       20.10408
C         58.06442      -25.48362       20.04560
O         57.99136      -26.27185       19.11116
C         59.55113      -23.80513       18.85567
C         61.01680      -23.34726       18.68160
C         61.20760      -22.46883       17.43786
C         62.69713      -22.17584       17.18282
N         62.88117      -21.45332       15.92318
H         59.08721      -23.10613       21.47996
H         60.14759      -25.51857       20.00773
H         58.86921      -22.92901       18.93701
H         59.27567      -24.37427       17.94121
H         61.64050      -24.26130       18.56774
H         61.37149      -22.78883       19.57307
H         60.65555      -21.51090       17.56716
H         60.79870      -23.00293       16.55497
H         63.26288      -23.13313       17.12395
H         63.11423      -21.57892       18.02441
H         63.89144      -21.20819       15.80871
H         62.59514      -22.06302       15.12203
H         62.31363      -20.57548       15.91640
N         56.96013      -25.41695       20.86584
C         56.57760      -24.56572       21.99503
C         56.60845      -23.08779       21.69265
O         57.00918      -22.29464       22.53598
C         57.13478      -25.01929       23.36327
C         56.13379      -24.68082       24.49668
C         56.61610      -25.21980       25.80187
O         57.64889      -24.80022       26.29526
O         55.94006      -26.20400       26.41549
H         56.19882      -26.05695       20.58064
H         55.48678      -24.77695       22.08218
H         58.14350      -24.59461       23.55537
H         57.22239      -26.12861       23.35810
H         55.15710      -25.17021       24.26969
H         55.95616      -23.58930       24.58560
N         56.18385      -22.64504       20.48041
C         56.17199      -21.24289       20.13923
H         55.45478      -20.70467       20.79403
H         57.18875      -20.81143       20.25672
H         55.85300      -21.12382       19.08258
H         55.87423      -23.32734       19.77241
Ca        56.95637      -27.17606       28.16302
O         54.03168      -27.13608       28.26986
H         53.95393      -27.11207       29.25139
H         53.66573      -28.02017       28.02270
O         58.98902      -28.16981       26.37050
H         59.18369      -28.94131       25.78495
H         59.79608      -28.08822       26.92712
O         59.45277      -25.81318       28.55035
H         59.63979      -24.97003       29.02748
H         60.16820      -26.41832       28.85612
O         56.36377      -29.45655       26.75715
H         55.82484      -29.08409       26.01671
H         56.52656      -30.39430       26.49666
O         56.18440      -25.03892       29.74484
H         57.12937      -24.77635       29.62694
H         55.72125      -24.20460       29.99874

Ca 1.70



