%chk=loop4.cluster12.chk
%nprocshared=48
%mem=10GB
%nosave
#b3lyp/svp scf=(tight,noincore) Test 
#IOP(5/87=12) Density=Current Pop=(MK,readradii) iop(6/33=2) iop(6/42=6)

loop4.cluster12 

   -3  1 
C         81.43460       45.47192       83.60693
C         82.35276       44.28744       83.60618
O         82.91657       43.94579       82.57525
H         80.44147       45.15243       83.99114
H         81.83425       46.26208       84.27948
H         81.30894       45.88776       82.58740
N         82.52668       43.59068       84.75766
C         83.35787       42.40690       84.90667
C         84.81346       42.73362       84.75418
O         85.53957       42.05051       84.05434
C         82.89416       41.20589       84.06125
C         81.43671       40.98348       84.25040
O         80.92770       41.06520       85.35784
O         80.66400       40.81363       83.17995
H         82.02382       43.91795       85.59957
H         83.25337       42.08655       85.96787
H         83.42572       40.29754       84.39662
H         83.10357       41.34954       82.97972
N         85.30626       43.74834       85.50974
C         86.72144       43.97132       85.69099
C         86.97304       43.65298       87.15880
O         86.44684       44.36377       87.99949
C         87.09498       45.44944       85.35639
C         86.86902       45.84648       83.87245
C         88.54545       45.75820       85.77509
C         87.63489       45.00362       82.85007
H         84.65524       44.30444       86.07972
H         87.31562       43.30543       85.04232
H         86.44823       46.13299       85.95295
H         87.19525       46.90520       83.76358
H         85.78835       45.81603       83.61177
H         88.82910       46.78883       85.47175
H         88.64376       45.70889       86.87983
H         89.25790       45.03599       85.32902
H         88.70170       44.89067       83.12684
H         87.17016       44.00146       82.75129
H         87.59365       45.50544       81.85984
N         87.74637       42.60752       87.57808
C         88.38674       41.61792       86.71747
C         87.40728       40.57591       86.21200
O         87.59922       40.07072       85.11620
C         89.46345       40.86152       87.51112
C         90.50863       41.80835       88.02687
O         91.19459       42.45144       87.24790
O         90.67808       41.96388       89.35289
H         87.88134       42.51397       88.59869
H         88.92618       42.10445       85.87349
H         89.95750       40.10247       86.86401
H         88.98423       40.33314       88.36452
N         86.37923       40.13839       87.00482
C         85.48085       39.08306       86.57117
C         86.18213       37.76066       86.38353
O         87.31406       37.58137       86.81706
H         86.20782       40.58233       87.91631
H         85.06685       39.37951       85.58829
H         84.63071       38.95688       87.27666
N         85.55576       36.79608       85.66165
C         86.22542       35.59173       85.18831
C         87.23583       35.88501       84.06726
O         87.95136       34.97405       83.67693
C         85.19206       34.51817       84.73212
C         84.13456       34.90702       83.71183
O         83.36911       34.05286       83.29766
O         83.95833       36.17867       83.31317
H         84.59491       36.99070       85.35788
H         86.78873       35.14012       86.03770
H         84.63344       34.17407       85.62794
H         85.75441       33.64450       84.33631
N         87.31379       37.11611       83.47067
C         88.14636       37.37005       82.29667
C         87.36715       37.17039       80.99924
O         87.91838       37.39607       79.93045
H         86.64890       37.85207       83.74123
H         89.03800       36.70751       82.28726
H         88.52106       38.41568       82.35851
N         86.07183       36.74115       81.03089
C         85.21415       36.48485       79.88411
C         85.01967       37.72154       79.04523
O         85.29818       37.71896       77.85504
C         85.64268       35.22198       79.11548
C         85.42115       33.97335       79.99691
C         85.57498       32.67358       79.24990
N         85.24872       31.50982       79.85825
O         85.95964       32.66364       78.08959
H         85.65050       36.58145       81.93696
H         84.19221       36.26287       80.26593
H         86.69118       35.28997       78.75361
H         84.96686       35.12305       78.23771
H         84.37238       33.99427       80.36741
H         86.09915       33.98498       80.87874
H         84.89580       31.50722       80.82710
H         85.32239       30.61647       79.34989
N         84.49885       38.83045       79.63732
C         84.23805       40.05926       78.90552
C         82.97252       39.88099       78.07353
O         81.90773       39.67863       78.64143
C         84.11276       41.25437       79.89651
C         85.37286       41.37465       80.77919
C         83.90260       42.57967       79.15017
H         84.29332       38.79438       80.64672
H         85.11589       40.27606       78.25568
H         83.24010       41.09132       80.56607
H         85.50803       40.48225       81.42540
H         86.28509       41.49509       80.15687
H         85.28416       42.25016       81.45438
H         83.82006       43.41480       79.87861
H         84.75697       42.78478       78.46981
H         82.96484       42.55460       78.55801
N         83.02221       39.96536       76.71305
C         81.84381       39.82767       75.85955
C         81.28438       41.18244       75.50114
O         82.03392       42.06998       75.11663
C         82.19599       39.04940       74.57474
C         81.06192       39.05074       73.56413
N         79.81813       38.63483       73.90315
O         81.26960       39.46412       72.43276
H         83.92761       40.16999       76.26449
H         81.04981       39.24673       76.37913
H         82.45421       38.00618       74.85136
H         83.08562       39.51198       74.09090
H         79.60889       38.31005       74.85706
H         79.05294       38.67272       73.21298
N         79.93481       41.38204       75.54598
C         79.32188       42.63313       75.13804
C         78.00936       42.77134       75.88218
O         76.96448       42.93294       75.26722
C         79.15213       42.62973       73.59101
C         79.04785       44.01000       72.99211
C         80.14013       44.88346       73.11473
C         77.91409       44.42261       72.26897
C         80.10506       46.14974       72.53351
C         77.88011       45.69901       71.68793
C         78.97821       46.56517       71.82109
O         78.96218       47.79437       71.26649
H         79.32200       40.60227       75.83476
H         79.98115       43.46250       75.47227
H         78.29667       41.97342       73.30834
H         80.05306       42.18061       73.12215
H         81.02786       44.57195       73.65034
H         77.06506       43.76089       72.14841
H         80.95990       46.80625       72.63268
H         77.00691       46.01315       71.12933
H         78.19660       48.12396       70.77570
N         77.99757       42.61625       77.23973
C         76.75244       42.54987       77.98486
C         76.17938       43.94006       78.21766
O         75.06539       44.16805       77.76400
C         76.83357       41.57774       79.18668
C         75.44543       41.49112       79.85441
C         75.17784       40.24788       80.64505
O         75.66928       39.18790       80.29402
O         74.09966       40.22523       81.45118
H         78.88369       42.42253       77.72948
H         76.01795       42.01045       77.33999
H         77.61147       41.82406       79.93800
H         77.11290       40.58813       78.75524
H         74.65110       41.48767       79.08122
H         75.30406       42.39378       80.48636
N         76.85395       44.96680       78.81901
C         78.17154       44.87765       79.44399
C         79.23291       45.52974       78.57443
O         78.92454       46.03936       77.50615
C         78.14944       45.66606       80.78615
C         77.04372       45.28088       81.77568
C         77.18847       43.91966       82.34756
O         76.34509       43.48246       83.11165
O         78.30050       43.22557       82.13420
H         76.39972       45.89313       78.81430
H         78.46917       43.82829       79.60429
H         77.98705       46.73945       80.54424
H         79.12966       45.59143       81.30251
H         76.05519       45.37887       81.29110
H         77.09817       45.97964       82.63862
N         80.52021       45.58705       79.02742
C         81.57054       46.31996       78.35581
H         82.42580       45.64315       78.15645
H         81.23406       46.78313       77.40591
H         81.91222       47.13141       79.03512
H         80.76125       45.13309       79.91904
Ca        78.61028       41.49946       83.42894
O         78.36854       39.15663       85.14383
H         77.80605       38.65524       85.78546
H         79.22181       38.65807       85.10685
O         78.38435       39.36354       81.92722
H         79.19551       39.08707       81.43613
H         77.65470       38.82310       81.54828
O         75.99155       40.35307       84.21005
H         75.73415       39.44980       84.52014
H         75.71839       40.36936       83.26309

Ca 1.70



