%chk=loop3.cluster103.chk
%nprocshared=48
%mem=10GB
%nosave
#b3lyp/svp scf=(tight,noincore) Test 
#IOP(5/87=12) Density=Current Pop=(MK,readradii) iop(6/33=2) iop(6/42=6)

loop3.cluster103 

   0  1 
C         54.36822       56.23328       40.77261
C         55.11050       56.32880       42.07223
O         54.50149       56.06740       43.09659
H         53.51731       56.94890       40.77241
H         55.02209       56.45866       39.90635
H         53.96644       55.20407       40.66352
N         56.44556       56.65620       42.09395
C         57.28309       56.78252       43.29790
C         57.06611       58.11294       44.03926
O         58.02184       58.85197       44.22552
C         57.20109       55.53973       44.21071
C         57.50940       54.27902       43.44316
O         56.59596       53.29197       43.37076
O         58.58620       54.14728       42.88205
H         56.92038       56.77571       41.18673
H         58.34264       56.82004       42.95140
H         56.20086       55.45365       44.67958
H         57.94316       55.63967       45.03195
N         55.82169       58.49608       44.43401
C         55.48965       59.78537       45.03536
C         56.17042       59.98744       46.38682
O         56.83441       61.00187       46.57783
C         53.94399       59.95920       45.07766
C         53.14688       59.16071       46.13331
C         53.05175       57.63623       45.90201
C         52.22794       56.92086       46.98026
N         52.92469       56.91225       48.25965
H         55.05222       57.88325       44.21769
H         55.84370       60.57899       44.33778
H         53.53093       59.74410       44.06368
H         53.74813       61.03354       45.27721
H         52.10432       59.54506       46.10270
H         53.55835       59.40597       47.12956
H         54.03879       57.13972       45.89173
H         52.55858       57.46591       44.92193
H         52.07718       55.86523       46.66766
H         51.22753       57.39540       47.09416
H         52.40431       56.29331       48.91315
H         53.89224       56.53233       48.15642
H         52.95371       57.87538       48.64413
N         56.14157       59.00261       47.32874
C         57.00871       58.99270       48.50860
C         57.18193       57.57518       49.05831
O         56.50424       56.65149       48.61675
C         56.59735       59.99890       49.62556
C         55.31478       59.70424       50.34538
O         54.96985       60.45355       51.40937
O         54.60882       58.77254       50.01299
H         55.62634       58.14669       47.08538
H         58.02210       59.29394       48.15953
H         56.54812       61.03457       49.23073
H         57.38656       59.98166       50.40626
N         58.12939       57.31854       49.99509
C         58.40989       55.98370       50.49489
C         57.28319       55.39711       51.31407
O         56.65123       56.12049       52.06793
H         58.72244       58.09543       50.33030
H         59.28100       56.05056       51.17704
H         58.69875       55.30904       49.65730
N         57.03190       54.05756       51.26509
C         56.04536       53.38074       52.10772
C         56.65352       52.18953       52.87204
O         55.90748       51.49342       53.54426
C         54.88341       52.91782       51.20708
C         54.07954       54.08199       50.72381
N         53.36004       54.80995       51.60518
O         54.05609       54.35846       49.53509
H         57.57030       53.48113       50.59838
H         55.62193       54.06221       52.87785
H         54.17221       52.27363       51.76093
H         55.28557       52.36698       50.34062
H         53.34716       54.56598       52.60646
H         52.80786       55.60753       51.28551
N         57.99935       51.92115       52.84936
C         58.62591       50.77238       53.51194
C         58.25574       49.44540       52.85950
O         58.31268       49.33710       51.64257
H         58.63030       52.57628       52.37142
H         58.37139       50.77186       54.59602
H         59.72512       50.88801       53.42657
N         57.79936       48.41018       53.63441
C         57.16457       47.16846       53.15406
C         55.85328       47.40710       52.41696
O         55.22605       46.42595       52.06212
C         58.03589       46.25571       52.25923
C         59.32891       45.82508       52.88157
C         59.35201       45.03040       54.04334
C         60.53260       46.19943       52.27547
C         60.57612       44.64480       54.60136
C         61.74956       45.82054       52.83591
C         61.77720       45.04962       54.00632
O         62.95227       44.69817       54.56427
H         57.84403       48.53172       54.65676
H         56.90765       46.58016       54.06338
H         58.21151       46.76482       51.28873
H         57.46838       45.32166       52.03090
H         58.42915       44.70773       54.51203
H         60.52430       46.79244       51.36980
H         60.59311       44.03725       55.49823
H         62.66994       46.13015       52.36026
H         63.79563       44.99525       54.19303
N         55.40242       48.66481       52.12095
C         54.17789       49.01572       51.42191
C         52.97586       48.75892       52.31415
O         52.39030       49.71490       52.80094
C         54.10141       48.44326       49.97557
C         55.42594       48.62528       49.17420
C         52.91274       49.06739       49.21785
C         55.94319       50.05501       49.01874
H         55.95784       49.46314       52.39765
H         54.21887       50.11642       51.29451
H         53.93348       47.34660       50.01468
H         55.28351       48.19828       48.15847
H         56.23205       48.03901       49.66407
H         52.89756       48.72694       48.16082
H         51.95471       48.76348       49.68330
H         52.96156       50.17733       49.23023
H         55.19610       50.70960       48.52372
H         56.23265       50.45998       50.00698
H         56.86172       50.04618       48.39337
N         52.58447       47.49220       52.61677
C         51.44283       47.17620       53.45824
C         50.15902       47.40539       52.68489
O         49.16782       47.80702       53.27856
C         51.54948       45.72195       53.93521
O         51.56468       44.84894       52.83836
H         53.07032       46.70931       52.18482
H         51.47252       47.80826       54.37763
H         50.69571       45.47761       54.60142
H         52.50298       45.62535       54.50913
H         51.81555       43.95930       53.19656
N         50.16005       47.29098       51.31569
C         49.04501       47.66710       50.44933
C         48.63639       49.13848       50.62117
O         47.58771       49.52739       50.12764
C         47.86410       46.70855       50.64965
H         51.01510       46.95918       50.84907
H         49.36645       47.52140       49.39483
H         47.37796       46.83884       51.63703
H         47.11060       46.88447       49.85105
H         48.21248       45.65672       50.55056
N         49.40392       49.99525       51.35904
C         48.97200       51.31707       51.78813
C         49.02625       52.35770       50.69362
O         49.95990       52.37117       49.90239
C         49.81768       51.77326       52.97890
H         50.29418       49.66028       51.72775
H         47.93875       51.23833       52.19111
H         50.88712       51.87399       52.70213
H         49.44421       52.74536       53.36333
H         49.72427       51.02111       53.79449
N         48.03317       53.29219       50.62289
C         47.93502       54.33136       49.60275
C         47.71530       53.76284       48.20398
O         47.65613       54.53690       47.25780
C         49.10523       55.34754       49.65305
C         49.25664       55.96366       51.05655
C         50.06760       57.22262       51.02742
O         49.50298       58.39733       51.36299
O         51.23236       57.19541       50.69421
H         47.29086       53.26710       51.33777
H         47.02439       54.93050       49.83093
H         48.83865       56.16776       48.94723
H         50.07014       54.91291       49.31199
H         49.71273       55.22581       51.75436
H         48.25675       56.24524       51.44219
N         47.52429       52.42598       47.99793
C         47.30565       51.87429       46.68153
H         46.42091       52.35002       46.20948
H         48.20591       52.03001       46.05133
H         47.11662       50.78222       46.76682
H         47.50304       51.77252       48.78862
Ca        52.34509       59.37213       51.83847
O         51.60934       59.88846       49.22138
H         52.36858       60.50420       49.06387
H         50.84906       60.28227       48.72882
O         52.54391       62.09171       51.53644
H         53.10183       62.60924       52.16874
H         52.38388       62.69757       50.77174
O         51.49136       57.60719       54.02857
H         50.72656       57.09986       54.39627
H         52.08279       57.76936       54.80532
O         53.38044       60.21031       54.27646
H         54.16947       60.80560       54.24117
H         53.32468       59.90916       55.21674
O         50.43112       60.67751       53.40036
H         50.26583       59.86085       53.93379
H         50.23912       61.42333       54.01977
O         54.18686       57.69592       53.00925
H         54.39897       57.10012       52.25107
H         54.55402       57.24497       53.80824

Ca 1.70



