%chk=loop1.cluster119.chk
%nprocshared=48
%mem=10GB
%nosave
#b3lyp/svp scf=(tight,noincore) Test 
#IOP(5/87=12) Density=Current Pop=(MK,readradii) iop(6/33=2) iop(6/42=6)

loop1.cluster119 

   0  1 
C         66.05662       45.42808       29.91680
C         67.18933       44.73350       29.23661
O         67.17644       43.51943       29.16800
H         65.20155       44.73072       30.03988
H         66.39207       45.77327       30.91737
H         65.72951       46.29731       29.31020
N         68.18928       45.46394       28.67036
C         69.36736       44.89773       28.00982
C         70.27754       44.27838       29.05583
O         71.22414       44.91067       29.50511
C         69.98441       46.01126       27.14826
C         71.25202       45.73738       26.41800
O         72.11395       46.59106       26.47194
O         71.45800       44.66429       25.62503
H         68.08912       46.49133       28.69081
H         69.08036       44.12533       27.28696
H         70.15618       46.91503       27.77425
H         69.25064       46.28539       26.37214
N         69.96485       43.04680       29.55239
C         70.63452       42.41929       30.68120
C         71.98258       41.81852       30.31740
O         72.76255       41.56049       31.22217
C         69.70072       41.34899       31.29423
C         68.62188       41.98387       32.20432
C         67.73040       40.89018       32.80788
C         66.78021       41.35696       33.92979
N         65.64923       42.16501       33.45682
H         69.18230       42.54032       29.12667
H         70.83198       43.19278       31.45748
H         70.29080       40.65309       31.92585
H         69.23886       40.73980       30.48075
H         68.00917       42.73563       31.66310
H         69.15800       42.49549       33.03418
H         68.40255       40.13599       33.26912
H         67.14761       40.38392       32.00657
H         67.33731       41.89581       34.73078
H         66.37584       40.42801       34.38818
H         65.84751       43.18419       33.57449
H         65.41357       41.95784       32.46007
H         64.80807       41.93197       34.03677
N         72.34335       41.61794       29.01833
C         73.69886       41.21267       28.62653
C         74.48097       42.42164       28.09923
O         75.69037       42.31827       27.94177
C         73.67613       40.00011       27.65151
C         72.95441       40.28183       26.35783
O         72.80866       39.40960       25.51720
O         72.44261       41.50274       26.16489
H         71.65958       41.84350       28.28949
H         74.25774       40.88502       29.53014
H         73.15752       39.15703       28.15811
H         74.71777       39.68537       27.42647
N         73.86977       43.63066       27.90711
C         74.59685       44.86763       27.68411
C         75.26834       45.02741       26.33713
O         76.19130       45.82206       26.24327
H         72.85416       43.71236       28.03041
H         75.31873       45.02798       28.51106
H         73.88675       45.71053       27.77040
N         74.80641       44.38519       25.22772
C         75.35858       44.65236       23.89063
C         74.97388       46.03307       23.32666
O         75.50548       46.40419       22.28722
C         74.99761       43.52084       22.88920
C         73.56845       43.06636       22.91463
O         72.60075       43.92861       23.22439
O         73.30718       41.87585       22.85900
H         74.03916       43.70928       25.33801
H         76.46815       44.64072       23.96034
H         75.60916       42.62810       23.13376
H         75.26819       43.81868       21.85315
N         74.03984       46.82814       23.92598
C         73.60881       48.12068       23.39597
C         72.24109       48.05737       22.71519
O         71.79813       49.06112       22.18493
H         73.56542       46.47096       24.75275
H         74.33584       48.50017       22.64690
H         73.57823       48.86177       24.22563
N         71.55487       46.88097       22.64753
C         70.28681       46.69144       21.93856
C         69.33479       45.88159       22.79603
O         69.76488       45.00224       23.52030
C         70.49431       45.95514       20.58249
C         71.12357       46.86213       19.52279
O         71.22706       44.76745       20.71691
H         71.96454       46.06740       23.09118
H         69.80672       47.66441       21.70970
H         69.50061       45.66720       20.17283
H         72.08741       44.97427       21.15346
H         71.35415       46.27708       18.60708
H         70.39276       47.65438       19.24780
H         72.05345       47.33821       19.89260
N         67.99295       46.06595       22.65430
C         67.01355       45.29764       23.41014
C         66.31886       44.33458       22.47058
O         65.72935       44.75779       21.49006
C         66.00218       46.24576       24.11381
C         66.74808       47.13222       25.13820
C         64.89681       45.42363       24.80971
C         65.87791       48.18952       25.81268
H         67.65349       46.75090       21.96736
H         67.50710       44.70805       24.20561
H         65.52860       46.89355       23.34358
H         67.57615       47.67085       24.62795
H         67.16816       46.48140       25.92810
H         65.33881       44.74546       25.56956
H         64.14334       46.07139       25.29445
H         64.33878       44.81851       24.06911
H         65.43673       48.86767       25.05293
H         65.07295       47.72757       26.41748
H         66.50995       48.78683       26.50337
N         66.31229       43.00455       22.77145
C         65.53768       42.02691       22.01637
C         64.17486       41.87461       22.62900
O         63.95838       42.33817       23.72563
C         66.25258       40.65105       22.03522
C         67.51528       40.71184       21.19564
O         66.57163       40.29480       23.36020
H         66.74763       42.70221       23.64824
H         65.37642       42.38307       20.97781
H         65.58411       39.87838       21.59710
H         67.03872       39.41962       23.34529
H         68.00724       39.71636       21.18386
H         67.25008       40.99550       20.15702
H         68.19908       41.46417       21.62605
N         63.18846       41.23186       21.94895
C         61.89048       40.92479       22.55445
C         62.04876       39.88892       23.64853
O         61.20449       39.81792       24.53050
C         60.89670       40.44203       21.47781
C         60.47024       41.63123       20.61204
O         61.50506       39.45391       20.67865
H         63.38453       40.93313       20.98305
H         61.47852       41.84457       23.02895
H         59.97064       40.04230       21.95760
H         60.87809       38.68980       20.60236
H         59.82919       42.30692       21.22090
H         61.34803       42.21339       20.25853
H         59.88593       41.28934       19.73466
N         63.13188       39.06502       23.66604
C         63.40437       38.14993       24.76073
C         63.61591       38.96363       26.03312
O         62.97395       38.70816       27.04135
C         64.63240       37.28816       24.38260
C         64.73274       36.03642       25.24778
C         65.82648       35.08903       24.72975
C         65.72651       33.70302       25.38541
N         64.61559       32.91957       24.82850
H         63.79524       39.09598       22.87958
H         62.53554       37.46471       24.87123
H         65.57446       37.87700       24.38646
H         64.46791       36.91936       23.34392
H         63.74974       35.53332       25.18487
H         64.92867       36.29979       26.31000
H         66.81156       35.55268       24.95312
H         65.76065       34.94777       23.62687
H         65.61880       33.81118       26.48748
H         66.66731       33.14829       25.18263
H         64.77308       32.76459       23.80505
H         64.58163       31.98781       25.29949
H         63.69284       33.38708       24.96403
N         64.45602       40.03235       26.00004
C         64.66352       40.97456       27.09924
C         63.36874       41.66711       27.51218
O         62.99835       41.57328       28.67391
C         65.78208       41.95868       26.67362
C         67.11771       41.19690       26.80732
C         68.33479       41.85000       26.27076
O         68.26570       42.80721       25.52135
O         69.53179       41.33681       26.60355
H         64.95112       40.20780       25.11615
H         65.02430       40.43270       28.00226
H         65.81584       42.85343       27.32298
H         65.59975       42.32619       25.64332
H         67.07534       40.20222       26.31870
H         67.28670       41.05114       27.89478
N         62.61694       42.36107       26.61918
C         61.35399       42.97067       26.97001
H         60.63614       42.18796       27.29526
H         61.49502       43.71929       27.77635
H         60.92947       43.48198       26.07823
H         62.92795       42.44167       25.65900
Ca        71.02254       42.58601       24.84450
O         70.57909       41.91488       21.80743
H         70.71596       42.48331       21.01334
H         70.66387       40.99690       21.44988

Ca 1.70



