%chk=loop3.cluster131.chk
%nprocshared=48
%mem=10GB
%nosave
#b3lyp/svp scf=(tight,noincore) Test 
#IOP(5/87=12) Density=Current Pop=(MK,readradii) iop(6/33=2) iop(6/42=6)

loop3.cluster131 

   0  1 
C         40.78377       81.08073       73.80207
C         40.69988       81.57985       72.39159
O         41.62017       82.25394       71.95090
H         40.85724       81.95060       74.48933
H         39.88622       80.48933       74.07734
H         41.68562       80.44560       73.92164
N         39.60390       81.30590       71.62422
C         39.43932       81.83547       70.27451
C         39.27398       80.69612       69.27321
O         38.86165       79.60883       69.65300
C         38.19899       82.76454       70.28832
C         38.03258       83.70355       69.11938
O         38.87594       83.78655       68.24388
O         36.96392       84.52118       69.08237
H         38.83890       80.74260       72.02731
H         40.33356       82.43434       69.99734
H         38.26306       83.42252       71.18185
H         37.28572       82.13809       70.39487
N         39.57490       80.89755       67.95839
C         39.37651       79.92094       66.89090
C         37.91259       79.62711       66.64301
O         37.05175       80.09438       67.37887
C         40.21495       78.63671       67.07065
C         41.71178       78.91360       67.26406
C         42.36163       79.64100       66.06695
C         43.87518       79.81115       66.26199
N         44.19289       80.83903       67.25817
H         39.96887       81.80466       67.68116
H         39.71442       80.40978       65.95259
H         40.09982       77.98888       66.17461
H         39.84821       78.05658       67.94277
H         42.21494       77.92852       67.38390
H         41.84735       79.48168       68.20481
H         41.91488       80.64209       65.88748
H         42.19368       79.01660       65.16250
H         44.33532       80.11205       65.29470
H         44.31535       78.83208       66.55318
H         43.63586       80.72929       68.13295
H         45.20647       80.77435       67.50368
H         44.00633       81.78512       66.85193
N         37.55880       78.94086       65.52401
C         36.17847       78.83692       65.08223
C         35.24897       78.02403       65.95887
O         34.05722       78.29866       65.92230
C         36.06294       78.38766       63.61503
C         36.94488       77.28032       63.13812
O         36.98591       76.18800       63.68740
O         37.65114       77.52424       62.01687
H         38.30890       78.60207       64.90180
H         35.74968       79.86400       65.07573
H         36.36839       79.24709       62.98387
H         35.00776       78.16838       63.36499
N         35.67277       76.92532       66.64670
C         34.72711       76.01872       67.29557
C         33.66074       75.59078       66.30276
O         32.48298       75.67691       66.62706
H         36.67162       76.67727       66.64503
H         34.22919       76.53525       68.14856
H         35.27742       75.14560       67.69872
N         33.99721       75.32351       65.00538
C         32.99430       75.32525       63.94690
C         32.00564       74.19861       64.07471
O         32.36359       73.06295       63.82924
C         33.63120       75.34741       62.53739
C         32.60331       75.11485       61.44896
N         31.46434       75.84617       61.39661
O         32.78273       74.21897       60.63764
H         34.99329       75.28933       64.74898
H         32.43812       76.28205       64.04251
H         34.41890       74.56601       62.45077
H         34.11393       76.33297       62.38533
H         31.27353       76.58041       62.09264
H         30.75091       75.64331       60.68130
N         30.70579       74.48630       64.37546
C         29.63048       73.51401       64.44931
C         29.85903       72.47394       65.51454
O         30.24969       72.81400       66.62221
H         30.45069       75.47051       64.54357
H         29.47778       73.03881       63.45524
H         28.69991       74.06172       64.70617
N         29.62112       71.16082       65.22790
C         29.89773       70.04609       66.12988
C         31.38367       69.83676       66.36546
O         31.72091       68.98299       67.17300
C         29.18372       70.13798       67.49639
C         27.71897       70.47297       67.44943
C         27.21266       71.45066       68.32166
C         26.84259       69.79974       66.58296
C         25.84950       71.74511       68.33535
C         25.48039       70.11097       66.58475
C         24.97911       71.07992       67.46737
O         23.66397       71.37239       67.49159
H         29.23383       70.92704       64.30079
H         29.52603       69.12288       65.63172
H         29.71156       70.85810       68.15888
H         29.27837       69.13743       67.97456
H         27.87196       71.96660       69.00985
H         27.21075       69.04213       65.90405
H         25.46956       72.48642       69.02688
H         24.81396       69.59386       65.90687
H         23.03436       70.92335       66.91023
N         32.32040       70.58384       65.69721
C         33.76903       70.48044       65.84992
C         34.31817       69.28472       65.07167
O         35.25934       69.48428       64.31499
C         34.18479       70.74614       67.32777
C         33.97747       72.26324       67.62966
C         35.63941       70.35928       67.63871
C         33.63696       72.55168       69.08517
H         31.99198       71.27233       65.03813
H         34.22445       71.33168       65.28636
H         33.54961       70.13131       67.98794
H         33.13964       72.69607       67.04045
H         34.89239       72.81769       67.31925
H         35.80759       69.28380       67.43475
H         36.35307       70.95345       67.02912
H         35.85738       70.53460       68.71394
H         34.34275       72.06005       69.78129
H         33.65479       73.64970       69.25705
H         32.60428       72.18944       69.28363
N         33.69557       68.06876       65.05118
C         34.09448       66.98993       64.15763
C         35.44833       66.39587       64.53353
O         36.04190       65.70992       63.71856
C         33.03202       65.86969       64.17806
O         31.72373       66.37263       64.05387
H         32.85883       67.92274       65.60671
H         34.14067       67.41693       63.12702
H         33.09123       65.36048       65.16364
H         33.22371       65.11615       63.38538
H         31.68865       66.94140       63.24373
N         35.97866       66.62304       65.77492
C         37.31060       66.18836       66.19540
C         38.37559       66.82923       65.32784
O         39.45432       66.26478       65.16454
C         37.43656       64.66135       66.25935
H         35.43618       67.16428       66.45750
H         37.45337       66.56020       67.23425
H         36.59149       64.22896       66.83459
H         37.46089       64.20776       65.24672
H         38.38067       64.39605       66.78409
N         38.14304       68.04028       64.75406
C         39.05177       68.69671       63.84223
C         39.63471       69.93179       64.46873
O         38.96399       70.62363       65.22813
C         38.32013       69.08658       62.54980
H         37.26646       68.52629       64.97427
H         39.89100       68.02225       63.55999
H         37.44671       69.73757       62.77099
H         39.00017       69.64909       61.87396
H         37.96678       68.18375       62.01050
N         40.90223       70.28513       64.13760
C         41.56172       71.50475       64.56214
C         41.75373       71.59461       66.06209
O         41.87726       72.69146       66.59021
C         40.92539       72.73518       63.89114
C         40.94960       72.51555       62.36512
C         40.53190       73.72760       61.64136
O         41.33972       74.38952       61.00857
O         39.25293       74.08678       61.67564
H         41.42424       69.67515       63.48888
H         42.59604       71.46152       64.15799
H         41.54649       73.62702       64.13370
H         39.89019       72.92621       64.25569
H         40.26887       71.69086       62.06164
H         41.98098       72.26379       62.05003
N         41.94902       70.45899       66.78903
C         42.31945       70.49833       68.18561
H         43.27099       71.06129       68.29880
H         41.52381       70.97877       68.79142
H         42.48439       69.46351       68.55432
H         41.87322       69.53901       66.33139
Ca        38.76941       76.03852       60.87169
O         38.09182       74.24158       58.72443
H         37.30987       74.15616       58.12416
H         38.09008       73.40761       59.25739
O         40.60606       76.97452       62.83808
H         40.16604       77.84192       63.02252
H         40.32877       76.38895       63.58675
O         39.65914       79.14681       59.71135
H         38.83937       79.65957       59.92459
H         40.16620       79.73365       59.09552
O         39.36886       77.11815       57.35089
H         39.88562       76.60382       56.68097
H         39.11607       77.95299       56.88202
O         36.57538       77.02540       59.37463
H         36.27343       76.20127       58.91915
H         35.74890       77.54862       59.51883

Ca 1.70



