%chk=loop3.cluster100.chk
%nprocshared=48
%mem=10GB
%nosave
#b3lyp/svp scf=(tight,noincore) Test 
#IOP(5/87=12) Density=Current Pop=(MK,readradii) iop(6/33=2) iop(6/42=6)

loop3.cluster100 

   0  1 
C         65.29923       25.72165       19.39258
C         66.40695       26.48651       18.72607
O         66.35701       27.70710       18.72743
H         64.34938       25.83383       18.82916
H         65.54564       24.64196       19.47000
H         65.16109       26.11611       20.42127
N         67.46772       25.81531       18.17787
C         68.66829       26.42364       17.59153
C         68.49109       27.04121       16.20379
O         69.39182       26.90481       15.38412
C         69.35787       27.38772       18.56539
C         70.76975       27.66447       18.13187
O         71.10402       28.78961       17.80052
O         71.67332       26.66438       18.11184
H         67.46368       24.78634       18.24670
H         69.36786       25.56917       17.43742
H         69.40090       26.93260       19.57804
H         68.77425       28.33086       18.62461
N         67.34455       27.68177       15.84694
C         67.07232       28.18181       14.51306
C         66.71646       29.66868       14.51840
O         66.51941       30.21747       13.44517
C         65.93505       27.29368       13.95653
C         66.49114       25.87400       13.72266
C         65.43979       24.83485       13.33011
C         66.16219       23.53197       12.93405
N         65.24457       22.51880       12.41234
H         66.57467       27.74176       16.50912
H         67.96070       28.08995       13.84661
H         65.53863       27.68410       12.99570
H         65.10009       27.27047       14.69421
H         67.00249       25.48410       14.62740
H         67.24338       25.96152       12.90716
H         64.86768       25.21472       12.45846
H         64.73680       24.65702       14.17578
H         66.73077       23.11555       13.79842
H         66.89428       23.78390       12.13590
H         65.79309       21.84298       11.83115
H         64.79236       21.99647       13.19637
H         64.51527       22.95379       11.80255
N         66.61395       30.38435       15.68536
C         66.28149       31.80783       15.70927
C         67.20368       32.54380       16.67407
O         67.78034       31.92793       17.55952
C         64.79235       31.91471       16.11928
C         64.09412       33.24322       16.02652
O         62.76491       33.29234       16.21733
O         64.68497       34.26077       15.73798
H         66.70466       29.90620       16.58894
H         66.40326       32.24259       14.69308
H         64.66118       31.52606       17.15173
H         64.23263       31.26109       15.42017
N         67.33981       33.89285       16.57482
C         68.10029       34.69445       17.49758
C         67.16890       35.51181       18.40814
O         65.98115       36.07093       17.88250
H         66.88788       34.38456       15.80781
H         68.80592       35.33649       16.92706
H         68.71263       34.06654       18.18262
N         67.93766       36.47420       19.18584
C         67.18419       37.13137       20.26493
C         67.98461       38.35320       20.67476
O         67.45825       39.45169       20.60320
C         66.89094       36.18216       21.45657
C         65.89836       35.09198       21.13434
N         64.64379       35.40403       20.72446
O         66.21700       33.92109       21.27408
H         68.74589       35.96158       19.61182
H         66.21191       37.51170       19.88422
H         66.41325       36.75385       22.25736
H         67.83611       35.75530       21.85693
H         64.35191       36.38695       20.62011
H         63.95986       34.66085       20.51983
N         69.30031       38.24040       21.02408
C         70.17552       39.38103       21.25577
C         69.77475       40.21601       22.44349
O         69.61938       39.68468       23.53365
H         69.73288       37.30690       21.04535
H         70.21033       40.00754       20.33646
H         71.20109       39.00373       21.44210
N         69.59070       41.55917       22.28646
C         69.12173       42.44972       23.34038
C         67.76793       41.96022       23.86406
O         67.48369       42.04122       25.04973
C         70.21679       42.73318       24.39491
C         71.45384       43.37901       23.77907
C         72.50717       42.58840       23.28140
C         71.56927       44.78186       23.71611
C         73.65284       43.18980       22.73961
C         72.71431       45.37869       23.17075
C         73.76087       44.58346       22.68393
O         74.87210       45.14816       22.16429
H         69.72097       41.96887       21.34915
H         68.90878       43.42917       22.85518
H         70.50373       41.80991       24.94109
H         69.80342       43.43405       25.15263
H         72.44568       41.50893       23.32002
H         70.77388       45.41345       24.08954
H         74.46130       42.57280       22.36579
H         72.79059       46.45893       23.13005
H         74.98236       46.10912       22.11261
N         66.89006       41.43735       22.95846
C         65.50093       41.04261       23.14846
C         64.67092       42.29164       23.22567
O         64.07956       42.67791       22.22794
C         65.16891       39.96032       24.23833
C         66.20853       38.81234       24.20094
C         63.72809       39.44816       23.99038
C         65.75204       37.46690       24.79256
H         67.21781       41.37332       21.98806
H         65.23141       40.56256       22.17683
H         65.18701       40.38611       25.26478
H         67.12491       39.15142       24.73082
H         66.48888       38.63695       23.15241
H         63.66159       38.91098       23.01917
H         63.40444       38.75932       24.80005
H         62.99896       40.28301       23.97933
H         64.90922       37.05075       24.19623
H         66.57998       36.72941       24.72201
H         65.43857       37.55813       25.85180
N         64.61313       43.00272       24.37587
C         63.85941       44.23620       24.52335
C         62.38773       44.04521       24.18527
O         61.83962       44.86855       23.46979
C         64.01911       44.74266       25.96069
O         65.37741       44.99647       26.20707
H         65.12427       42.64186       25.19388
H         64.27777       45.01792       23.84655
H         63.64236       43.95862       26.65810
H         63.44237       45.68143       26.09818
H         65.47258       45.10265       27.18802
N         61.70194       42.95123       24.64015
C         60.27748       42.72582       24.37212
C         59.94396       42.70984       22.88338
O         58.80108       42.98848       22.52937
C         59.44453       43.77727       25.12355
H         62.20382       42.24462       25.19359
H         59.98484       41.74066       24.79550
H         59.64094       44.80386       24.74945
H         58.35974       43.56486       25.01036
H         59.68795       43.74076       26.20633
N         60.89015       42.41595       21.94556
C         60.67208       42.59688       20.51894
C         60.77663       41.30599       19.73843
O         61.61529       40.46147       20.03343
C         61.65742       43.62503       19.96406
H         61.81824       42.10734       22.25831
H         59.66297       43.02844       20.33496
H         62.69965       43.24686       20.00449
H         61.40216       43.85932       18.90732
H         61.58852       44.56506       20.55200
N         59.94858       41.12701       18.67575
C         59.88838       39.95315       17.82367
C         59.43818       38.74028       18.63291
O         60.03651       37.68022       18.53658
C         61.22038       39.72160       17.05726
C         60.95804       39.19400       15.63753
C         62.19084       38.59851       15.02705
O         62.17501       37.44330       14.63121
O         63.31755       39.32524       14.92038
H         59.28858       41.88824       18.44992
H         59.09203       40.18551       17.08188
H         61.86437       39.03769       17.64869
H         61.79343       40.66824       16.94043
H         60.60656       40.04713       15.01133
H         60.16194       38.42099       15.64628
N         58.39452       38.85893       19.50135
C         57.97494       37.78119       20.37719
H         56.91788       37.52372       20.16612
H         58.59490       36.86629       20.26520
H         58.06032       38.11973       21.43202
H         57.90336       39.76069       19.57864
Ca        65.49031       36.92202       15.80514
O         67.03510       39.22630       15.82476
H         66.82269       40.04071       15.30464
H         67.45107       39.55424       16.65971
O         62.82340       36.36236       17.34928
H         61.86072       36.57602       17.36767
H         62.84416       35.38051       17.42531
O         67.81983       36.46913       14.59068
H         67.61746       35.61702       14.13260
H         67.71157       37.14916       13.88425
O         64.49547       38.73682       17.87696
H         64.10791       38.26099       18.65381
H         64.36691       39.69585       18.08147
O         65.54077       38.63246       13.32101
H         66.42371       38.75832       12.89365
H         64.89622       38.64135       12.57108
O         64.48439       35.73743       13.16557
H         64.01886       34.94295       13.52461
H         64.86456       35.42493       12.30791

Ca 1.70



