%chk=loop1.cluster110.chk
%nprocshared=48
%mem=10GB
%nosave
#b3lyp/svp scf=(tight,noincore) Test 
#IOP(5/87=12) Density=Current Pop=(MK,readradii) iop(6/33=2) iop(6/42=6)

loop1.cluster110 

   0  1 
C         90.51807       84.33721       58.77062
C         89.43580       84.61189       57.77600
O         88.35877       85.05217       58.15585
H         91.39645       84.97604       58.53275
H         90.17876       84.56783       59.80146
H         90.81957       83.27105       58.70969
N         89.67386       84.40082       56.45333
C         88.73506       84.72659       55.39257
C         88.45063       86.21995       55.43650
O         87.30403       86.63397       55.46766
C         87.47456       83.82976       55.47047
C         86.69401       83.82271       54.18449
O         85.39644       84.18078       54.17390
O         87.22365       83.44150       53.15189
H         90.59931       84.03484       56.17520
H         89.25471       84.50047       54.43441
H         86.82578       84.13917       56.31884
H         87.79492       82.78210       55.65057
N         89.50840       87.07980       55.47131
C         89.35989       88.52763       55.58368
C         89.65123       89.17905       54.27872
O         89.08142       90.23665       54.01514
C         90.33227       89.09521       56.64979
C         90.04591       88.57411       58.06046
C         88.70584       89.10315       58.60047
C         88.24639       88.37103       59.86217
N         89.14061       88.57559       60.99785
H         90.46022       86.69082       55.42989
H         88.31119       88.79788       55.80754
H         90.29665       90.20828       56.66315
H         91.36932       88.80102       56.36811
H         90.86375       88.90389       58.73846
H         90.05222       87.46527       58.02985
H         87.89938       88.92522       57.86844
H         88.77398       90.20151       58.77047
H         88.16482       87.28548       59.63560
H         87.23219       88.74307       60.12592
H         88.75677       88.04816       61.81466
H         90.09677       88.21029       60.79057
H         89.18368       89.59225       61.23743
N         90.55755       88.66041       53.40849
C         90.85978       89.35065       52.17677
C         89.70177       89.24091       51.19971
O         89.69986       89.97529       50.23990
C         92.19541       88.85625       51.56690
C         93.10943       90.00554       51.19446
O         94.10339       90.19954       51.87650
O         92.86459       90.85452       50.17239
H         91.07076       87.79777       53.65180
H         91.00760       90.41469       52.47114
H         92.05987       88.09471       50.76780
H         92.75335       88.32733       52.37329
N         88.67420       88.34967       51.39347
C         87.59049       88.13820       50.44173
C         88.10075       87.44550       49.20191
O         87.96202       86.23481       49.09225
H         88.65748       87.76400       52.23879
H         87.04988       89.07962       50.20545
H         86.85802       87.45054       50.92037
N         88.75176       88.15831       48.24547
C         89.39324       87.55846       47.08774
C         90.90570       87.52606       47.26602
O         91.45734       88.28953       48.04329
C         88.88719       88.19020       45.75965
C         88.83354       89.70410       45.63848
O         88.31986       90.20038       44.64865
O         89.29900       90.51727       46.60188
H         88.82217       89.16642       48.36694
H         89.12309       86.48208       47.03663
H         87.84064       87.84442       45.62860
H         89.48603       87.79461       44.91097
N         91.62254       86.55491       46.63408
C         93.05099       86.34482       46.81156
C         93.37641       85.48446       48.01644
O         92.72123       84.47221       48.22520
H         91.12526       85.91254       45.99919
H         93.62031       87.29918       46.77503
H         93.39016       85.74082       45.94563
N         94.45662       85.78350       48.79491
C         94.89355       84.96776       49.92745
C         96.29419       84.41624       49.68201
O         97.16029       85.13715       49.20602
C         94.84072       85.80529       51.22428
C         95.22416       84.98856       52.46558
O         95.69134       86.91924       51.13758
H         95.01345       86.61780       48.55778
H         94.20233       84.10870       50.08703
H         93.78650       86.13406       51.37820
H         95.18330       87.63630       50.67731
H         95.08700       85.61024       53.37531
H         94.58255       84.08593       52.55774
H         96.28765       84.66952       52.42161
N         96.58188       83.13678       50.05548
C         97.90010       82.50761       49.91349
C         97.82966       81.29422       48.97626
O         98.80242       81.01907       48.28700
C         98.49832       82.17946       51.31859
C         99.94321       81.62638       51.18258
C         97.59366       81.23038       52.13610
C        100.62393       81.31831       52.51689
H         95.82502       82.60235       50.49840
H         98.59871       83.22992       49.43290
H         98.55252       83.13999       51.88026
H        100.56636       82.37825       50.64867
H         99.93937       80.69050       50.58713
H         97.53442       80.22869       51.66321
H         97.96801       81.12633       53.17382
H         96.57156       81.63636       52.25819
H        100.07527       80.52924       53.06700
H        101.64615       80.92975       52.32713
H        100.69185       82.23120       53.14445
N         96.66596       80.60065       48.81776
C         96.46167       79.59437       47.78397
C         97.10322       78.26317       48.12111
O         96.89861       77.73027       49.20340
C         94.94914       79.41080       47.52775
C         94.36516       80.70884       46.93956
O         94.75124       78.36455       46.61046
H         95.84976       80.86374       49.37917
H         96.87611       79.96837       46.81959
H         94.45389       79.15439       48.49281
H         93.77072       78.25495       46.50213
H         94.55193       81.58374       47.59616
H         94.82990       80.91017       45.94877
H         93.27053       80.60531       46.80055
N         97.80213       77.61859       47.14960
C         98.39692       76.29629       47.30099
C         99.56156       76.34236       48.26541
O         99.63274       75.51442       49.16272
C         98.80899       75.75351       45.89371
C         99.63929       74.46802       45.94692
O         99.52842       76.71216       45.16016
H         97.87395       78.08239       46.23151
H         97.64438       75.57234       47.68976
H         97.84563       75.53735       45.36777
H         99.32532       76.54350       44.20033
H         99.11972       73.67554       46.52144
H         99.82243       74.10547       44.91215
H        100.62854       74.67625       46.40942
N        100.54895       77.25596       48.08908
C        101.79721       77.21896       48.84420
C        101.63432       77.43440       50.34812
O        100.56110       77.78893       50.81621
C        102.78434       78.23874       48.22726
C        102.34433       79.69781       48.45457
C        103.15085       80.66889       47.58836
C        102.62407       82.10108       47.75600
N        103.34359       83.03400       46.88899
H        100.44270       77.93674       47.32233
H        102.22639       76.20443       48.68887
H        102.82017       78.02813       47.13398
H        103.81239       78.09655       48.62275
H        102.45371       79.95802       49.53128
H        101.27818       79.81730       48.17807
H        103.04793       80.37531       46.52054
H        104.22559       80.62199       47.87126
H        102.74328       82.40757       48.81781
H        101.53939       82.13904       47.50191
H        104.37663       82.90580       46.98641
H        103.06282       82.88179       45.89250
H        103.09688       84.01257       47.16222
N        102.71609       77.25133       51.15543
C        102.71940       77.47612       52.60187
C        102.12094       76.29962       53.35942
O        102.47953       75.16990       53.05956
C        104.16987       77.72752       53.06790
C        104.52435       79.20755       52.82382
C        105.94958       79.56557       53.12238
O        106.31459       80.86165       53.12707
O        106.78243       78.70234       53.34839
H        103.59795       76.95939       50.70593
H        102.16403       78.39952       52.82467
H        104.86563       77.02003       52.56173
H        104.26420       77.56111       54.16347
H        103.87680       79.80192       53.50829
H        104.29856       79.51252       51.77965
N        101.22903       76.45798       54.38902
C        100.86136       77.73612       54.97781
H         99.90831       77.62144       55.53458
H        101.63757       78.05173       55.70983
H        100.66245       78.52735       54.23568
H        100.88163       75.61150       54.86581
Ca        91.34457       90.97803       48.50728
O         93.82920       90.86004       47.21327
H         94.16380       91.24956       46.36795
H         94.45767       91.18164       47.90735
O         91.28165       92.75643       46.07547
H         91.20364       93.70058       45.78907
H         91.72190       92.29826       45.31620
O         92.33680       93.61606       48.96294
H         92.07173       94.18343       49.72921
H         93.23251       93.94366       48.69939
O         89.22303       92.93110       48.99806
H         88.40154       92.88941       48.44749
H         89.28699       93.87612       49.28538

Ca 1.70



