%chk=loop3.cluster76.chk
%nprocshared=48
%mem=10GB
%nosave
#b3lyp/svp scf=(tight,noincore) Test 
#IOP(5/87=12) Density=Current Pop=(MK,readradii) iop(6/33=2) iop(6/42=6)

loop3.cluster76 

   0  1 
C        120.95122       46.61874       10.82419
C        121.13844       48.00705       11.33876
O        120.34562       48.88354       11.02450
H        120.10374       46.57224       10.10981
H        121.88131       46.30362       10.30579
H        120.75874       45.93444       11.67670
N        122.21227       48.28732       12.12140
C        122.51120       49.63371       12.57587
C        123.40685       50.36279       11.58935
O        123.96034       49.75197       10.68212
C        123.20207       49.62631       13.96754
C        124.51039       48.86874       13.97296
O        124.51792       47.52171       13.98189
O        125.56951       49.47450       14.00179
H        122.89401       47.53574       12.28132
H        121.56471       50.19535       12.68403
H        122.54009       49.21115       14.75583
H        123.40907       50.67817       14.26217
N        123.66143       51.68258       11.78814
C        124.77081       52.38692       11.15668
C        124.54374       52.80110        9.71447
O        125.45296       53.36175        9.12186
C        125.12113       53.63795       11.99517
C        125.42951       53.23278       13.44820
C        126.09097       54.31920       14.28570
C        127.51638       54.60239       13.78456
N        128.33587       55.17141       14.84875
H        123.14669       52.15054       12.54895
H        125.66351       51.72215       11.18285
H        124.28737       54.37535       11.99090
H        126.00972       54.11570       11.53637
H        126.10936       52.35247       13.45226
H        124.50117       52.93071       13.97262
H        126.15367       53.89369       15.30957
H        125.48060       55.24956       14.33828
H        127.48682       55.27701       12.89994
H        128.00111       53.65048       13.47204
H        127.91840       56.05910       15.20623
H        128.41039       54.47409       15.62721
H        129.29684       55.34744       14.47811
N        123.34034       52.62381        9.10994
C        123.04288       53.17808        7.78703
C        122.05877       54.31372        7.97870
O        121.08625       54.42233        7.24454
C        122.60438       52.04735        6.82462
C        121.48301       51.16323        7.30601
O        121.20640       50.15983        6.67230
O        120.79037       51.44733        8.42331
H        122.58691       52.18009        9.64279
H        123.94439       53.64742        7.34182
H        123.47964       51.37943        6.68965
H        122.33427       52.46329        5.82980
N        122.25741       55.18797        9.00873
C        121.27146       56.14719        9.48652
C        120.94296       55.79471       10.93318
O        121.79800       55.19916       11.57947
H        123.12583       55.09633        9.56113
H        120.36863       56.14530        8.84622
H        121.72694       57.16072        9.46835
N        119.80953       56.16986       11.59425
C        118.71721       57.00416       11.08079
C        117.37946       56.45644       11.59372
O        117.38534       55.78866       12.61584
C        118.93527       58.39522       11.69981
C        120.18191       59.02690       11.13393
N        121.33375       59.04927       11.84618
O        120.15862       59.49164       10.00454
H        119.77100       55.92144       12.59537
H        118.71837       57.07063        9.97789
H        119.03827       58.26647       12.80259
H        118.08140       59.08175       11.53317
H        121.38627       58.61436       12.77894
H        122.18595       59.46522       11.44156
N        116.16467       56.76587       11.04290
C        115.91915       57.60091        9.87707
C        116.23608       56.93809        8.55775
O        116.93625       55.93844        8.53245
H        115.32762       56.40233       11.52956
H        116.39615       58.59663        9.96719
H        114.81928       57.76878        9.85259
N        115.65708       57.39972        7.40908
C        115.84614       56.75220        6.10995
C        115.96532       57.79630        5.01315
O        115.10835       58.66848        4.91395
C        114.68639       55.79146        5.71659
C        113.66235       55.54100        6.78682
C        113.93143       54.70696        7.88231
C        112.41176       56.16304        6.68203
C        112.95546       54.50525        8.86549
C        111.44815       55.97731        7.66763
C        111.71576       55.15008        8.76587
O        110.79024       54.97822        9.72973
H        114.98178       58.17899        7.48099
H        116.76024       56.12037        6.13861
H        115.09172       54.83165        5.32368
H        114.14875       56.20633        4.83592
H        114.88782       54.21688        7.96994
H        112.19367       56.81087        5.84218
H        113.16378       53.85719        9.70805
H        110.49571       56.48159        7.57736
H        109.94164       55.44392        9.70102
N        116.97034       57.72029        4.10783
C        117.11444       58.61343        2.97045
C        117.22059       57.86254        1.63337
O        117.61184       58.47527        0.65229
C        118.33866       59.53680        3.19570
C        118.06437       60.49476        4.38064
C        119.64463       58.74335        3.41403
C        118.93307       61.74632        4.32394
H        117.67416       56.99107        4.23282
H        116.23695       59.28858        2.85549
H        118.42779       60.15092        2.27380
H        118.19189       59.95905        5.34801
H        117.01540       60.86102        4.33821
H        119.63385       58.21828        4.39549
H        119.77384       57.98280        2.62051
H        120.52614       59.41317        3.39381
H        118.68934       62.31363        3.39808
H        118.70085       62.39365        5.19505
H        120.01223       61.49998        4.32878
N        116.88994       56.54096        1.51649
C        117.07988       55.80817        0.25775
C        118.47201       55.20009        0.14609
O        118.80971       54.72204       -0.93169
C        115.93587       54.78770       -0.00485
O        115.30723       54.33910        1.16560
H        116.56574       56.02777        2.34579
H        117.06213       56.51167       -0.60096
H        116.26907       53.92942       -0.63653
H        115.14544       55.29382       -0.59335
H        115.86934       53.62562        1.54428
N        119.36062       55.23690        1.18149
C        120.71943       54.69478        1.11299
C        120.76131       53.15560        1.19002
O        121.72642       52.61388        1.71499
C        121.55170       55.32318        2.25434
H        119.08794       55.74225        2.02788
H        121.20370       55.03593        0.17307
H        121.48452       56.43087        2.19686
H        121.17730       55.00664        3.25049
H        122.62519       55.05360        2.17941
N        119.72263       52.38820        0.72314
C        119.63707       50.94069        0.82211
C        119.43860       50.47000        2.25889
O        119.37210       49.27100        2.48838
C        120.74870       50.25858        0.01873
H        118.91187       52.82816        0.30045
H        118.69732       50.63291        0.31187
H        120.74089       50.67858       -1.01355
H        121.75346       50.40514        0.45750
H        120.53669       49.17131       -0.06968
N        119.21524       51.37703        3.26207
C        118.81652       50.99460        4.60984
C        117.39892       50.43527        4.67958
O        117.01021       49.97845        5.74376
C        118.96257       52.18597        5.60232
C        117.89885       53.29565        5.56568
C        117.94381       54.06976        4.31370
O        117.32785       53.68915        3.33688
O        118.86163       55.03627        4.19541
H        119.31660       52.37104        3.06404
H        119.53034       50.21541        4.93662
H        119.96629       52.64292        5.45915
H        118.90855       51.78036        6.62985
H        118.13554       54.02012        6.37242
H        116.87298       52.92284        5.76298
N        116.55652       50.46064        3.60354
C        115.19192       49.97343        3.66580
H        114.49677       50.78588        3.36496
H        115.07627       49.12293        2.96358
H        114.90009       49.63313        4.68204
H        116.87474       50.84689        2.70459
Ca       118.63798       51.09168       10.21181
O        120.57278       52.16078       11.69866
H        120.45172       52.22532       12.67760
H        120.85358       53.05889       11.41553
O        116.57696       51.72965        8.51501
H        115.92953       52.27614        8.01306
H        116.69320       50.92392        7.95926
O        116.90222       52.92415       11.54106
H        115.91914       52.98499       11.63083
H        117.25872       53.40634       12.32618
O        118.86193       53.77287        9.25759
H        119.27098       53.67903        8.37028
H        117.90540       53.85679        9.03995
O        118.41129       49.05706        8.28609
H        118.27436       48.36291        7.59767
H        119.25569       49.49384        8.02322
O        116.82839       49.80174       11.77945
H        116.91890       48.85613       12.05456
H        116.27203       50.22591       12.47869

Ca 1.70



