%chk=loop3.cluster158.chk
%nprocshared=48
%mem=10GB
%nosave
#b3lyp/svp scf=(tight,noincore) Test 
#IOP(5/87=12) Density=Current Pop=(MK,readradii) iop(6/33=2) iop(6/42=6)

loop3.cluster158 

   0  1 
C         86.37303       80.26015       24.32115
C         87.84790       80.01728       24.29818
O         88.33730       79.20229       25.06597
H         85.87449       79.66042       25.11094
H         86.19018       81.33881       24.51544
H         85.95211       79.99279       23.33034
N         88.61881       80.72270       23.42230
C         90.07130       80.60232       23.32136
C         90.73462       80.82249       24.67122
O         90.83716       79.85127       25.39688
C         90.66358       81.48178       22.18001
C         90.26282       82.94656       22.17395
O         89.10438       83.27668       21.97706
O         91.19634       83.90230       22.34260
H         88.12907       81.37215       22.79983
H         90.30612       79.54770       23.04055
H         90.34353       81.06319       21.20367
H         91.77191       81.40232       22.23357
N         91.11039       82.06718       25.10944
C         91.61142       82.36703       26.45123
C         93.06803       81.93740       26.68484
O         93.96394       82.75040       26.86716
C         91.37656       83.84806       26.77163
C         91.34600       84.09570       28.29076
C         91.15349       85.58237       28.60121
C         92.49391       86.32920       28.60120
N         92.28834       87.76102       28.80454
H         90.90726       82.86691       24.51296
H         90.96381       81.81886       27.17027
H         90.35608       84.11684       26.41232
H         92.10971       84.47560       26.22502
H         92.24290       83.70331       28.81854
H         90.46325       83.53953       28.68005
H         90.71720       85.68924       29.61630
H         90.43585       86.02449       27.87338
H         93.04095       86.16931       27.64796
H         93.11932       85.92589       29.43177
H         91.73837       88.15191       28.00549
H         91.77928       87.93259       29.70205
H         93.21769       88.23794       28.84272
N         93.28463       80.62261       26.84963
C         94.47093       79.94984       27.35827
C         94.77716       78.67091       26.56326
O         95.77103       78.01773       26.85025
C         94.14631       79.59289       28.83740
C         92.86484       78.78711       28.98857
O         92.31860       78.68696       30.07408
O         92.27955       78.27114       27.89565
H         92.45481       80.07728       26.78746
H         95.35443       80.62579       27.31784
H         93.98107       80.56607       29.34970
H         94.98169       79.06845       29.34173
N         93.95067       78.25437       25.55648
C         94.16056       77.07740       24.74419
C         94.43830       77.57067       23.34498
O         93.81433       78.54288       22.93835
H         93.12974       78.81051       25.30222
H         93.21934       76.48629       24.74975
H         94.95415       76.42890       25.15471
N         95.37824       77.02406       22.53265
C         96.02990       75.73788       22.74896
C         95.08030       74.64846       22.23152
O         94.46897       74.87063       21.19537
C         97.33729       75.75380       21.94594
C         98.12976       74.48833       22.10108
N         98.06361       73.52725       21.15338
O         98.83592       74.32859       23.08579
H         95.50263       77.46837       21.60878
H         96.33299       75.61215       23.80215
H         97.96707       76.60757       22.28425
H         97.10582       75.92254       20.87308
H         97.44603       73.64373       20.33640
H         98.61010       72.66017       21.25028
N         94.84365       73.46895       22.87996
C         95.58211       72.98538       24.03069
C         94.70754       72.96840       25.24002
O         93.85666       73.84115       25.36915
H         94.10499       72.85053       22.50604
H         96.49552       73.55886       24.25642
H         95.92697       71.95285       23.80199
N         94.85095       71.99601       26.18344
C         93.99744       71.94439       27.35400
C         94.76127       72.00342       28.65239
O         95.95637       71.72869       28.70863
C         93.11968       70.68324       27.34964
C         92.03333       70.70744       26.30993
C         90.73809       71.12085       26.67097
C         92.27935       70.27142       25.00079
C         89.70054       71.08585       25.73958
C         91.23468       70.22665       24.07080
C         89.94057       70.62879       24.44077
O         88.92279       70.57058       23.55880
H         95.57248       71.26725       26.05729
H         93.31963       72.82665       27.38011
H         92.60211       70.61636       28.32405
H         93.72576       69.75402       27.27523
H         90.53354       71.46400       27.67783
H         93.26952       69.94308       24.71089
H         88.70621       71.40004       26.03303
H         91.42692       69.86770       23.06821
H         89.04833       70.23691       22.65935
N         94.05528       72.30755       29.77169
C         94.58034       72.34164       31.12337
C         94.18815       71.06649       31.86628
O         94.76566       70.78325       32.90154
C         94.08214       73.64090       31.84717
C         92.52063       73.70693       31.91087
C         94.70126       73.78281       33.24501
C         91.94829       74.93943       32.59469
H         93.04950       72.46456       29.63623
H         95.69438       72.33940       31.07460
H         94.44155       74.50554       31.24595
H         92.11841       72.81274       32.42533
H         92.09718       73.74694       30.89295
H         95.80627       73.69942       33.18502
H         94.46727       74.78271       33.66555
H         94.30638       73.01333       33.93974
H         90.84506       74.94764       32.45437
H         92.15247       74.91067       33.68319
H         92.36992       75.85868       32.13947
N         93.21919       70.23936       31.36749
C         92.86102       68.98429       32.00593
C         91.76412       69.18516       33.03188
O         91.64112       68.34272       33.91624
C         92.44953       67.96826       30.93124
O         93.50525       67.79601       30.02115
H         92.69460       70.50426       30.53180
H         93.75594       68.57616       32.52820
H         91.54546       68.36282       30.40797
H         92.20226       66.98882       31.39220
H         93.09906       67.59105       29.13866
N         90.91263       70.25850       32.98804
C         89.91905       70.49987       34.02862
C         88.92375       71.60870       33.68219
O         89.31621       72.75450       33.50035
C         90.61360       70.86649       35.34989
H         90.96069       70.90695       32.18754
H         89.34005       69.56348       34.18543
H         91.23449       70.02922       35.72705
H         91.26748       71.75551       35.21071
H         89.85444       71.10035       36.12670
N         87.58790       71.31540       33.64895
C         86.49545       72.28721       33.55872
C         86.49605       73.17321       32.32243
O         85.86391       74.22197       32.33444
C         86.35398       73.07991       34.86116
H         87.30985       70.33026       33.77407
H         85.55384       71.69858       33.49510
H         86.27804       72.37088       35.71412
H         87.21175       73.76185       35.02432
H         85.41168       73.67121       34.83929
N         87.05661       72.73496       31.16885
C         86.88702       73.41723       29.89165
C         85.62693       72.89256       29.24322
O         84.77835       73.68754       28.86300
C         88.14030       73.17465       29.03467
C         89.35291       73.86815       29.66738
C         89.28197       75.31921       29.35888
O         89.42066       75.68695       28.07987
O         89.12036       76.15670       30.23308
H         87.49486       71.80187       31.16296
H         86.75907       74.51866       30.02284
H         87.99712       73.55379       27.99624
H         88.32990       72.08552       28.97165
H         90.29183       73.50301       29.20091
H         89.42058       73.66978       30.75891
N         85.40308       71.55005       29.16384
C         84.14933       70.99055       28.70173
H         83.41631       71.76854       28.40182
H         84.33443       70.31722       27.84169
H         83.69730       70.40320       29.53005
H         86.12308       70.89574       29.50238
Ca        90.18755       77.66324       27.61900
O         87.06167       77.85621       28.06585
H         86.31321       77.26465       27.80119
H         86.66294       78.76162       28.10437
O         89.24874       80.24439       28.32377
H         88.61831       80.96930       28.08708
H         89.33227       80.28874       29.30906
O         87.89141       75.74087       25.65460
H         88.02048       74.90860       25.13368
H         87.26687       76.28366       25.11201
O         90.53842       76.85992       24.53771
H         90.29472       75.92216       24.73802
H         90.89772       76.82742       23.61616

Ca 1.70



