%chk=loop2.cluster133.chk
%nprocshared=48
%mem=10GB
%nosave
#b3lyp/svp scf=(tight,noincore) Test 
#IOP(5/87=12) Density=Current Pop=(MK,readradii) iop(6/33=2) iop(6/42=6)

loop2.cluster133 

   -2  1 
C         53.45488       46.13818       16.28579
C         54.38118       46.65059       15.22152
O         54.46907       46.03036       14.17106
H         52.43433       45.98776       15.86952
H         53.83865       45.16624       16.65747
H         53.38218       46.84753       17.13585
N         55.09499       47.80168       15.41650
C         55.98082       48.36534       14.40205
C         55.25892       49.53354       13.75517
O         55.62483       50.68815       13.91014
C         57.34977       48.72412       15.00394
C         58.37791       49.06738       13.94945
O         58.11289       48.98655       12.75846
O         59.61601       49.43394       14.32601
H         54.97456       48.31795       16.30112
H         56.16791       47.61532       13.60111
H         57.73997       47.85123       15.56980
H         57.22872       49.57362       15.70968
N         54.16010       49.23233       13.02523
C         53.26598       50.18992       12.37247
C         52.04160       49.41548       11.87062
O         52.11742       48.20251       11.74451
C         53.99571       50.89712       11.21343
H         53.94571       48.23252       12.96264
H         52.91433       50.91840       13.13371
H         54.81414       51.54179       11.59590
H         54.43304       50.14568       10.52185
H         53.32610       51.54004       10.61262
N         50.84579       49.99242       11.58941
C         50.50994       51.40902       11.63453
C         50.11285       51.91623       13.01556
O         49.65272       51.14704       13.84914
C         49.37256       51.71228       10.61346
C         48.13650       50.83508       10.70809
O         48.16059       49.67860       10.31334
O         46.96918       51.36165       11.10865
H         50.12503       49.33030       11.29465
H         51.36976       52.01799       11.30125
H         49.76331       51.59972        9.57986
H         49.06495       52.77118       10.73907
N         50.20393       53.24369       13.30326
C         49.65196       53.81461       14.52656
C         49.92042       55.30205       14.63600
O         50.86152       55.77977       14.01058
H         50.63815       53.86601       12.59925
H         50.07591       53.31828       15.42759
H         48.55661       53.63759       14.50161
N         49.16808       56.13973       15.40439
C         47.96930       55.76026       16.16398
C         48.29814       54.77256       17.26412
O         49.30036       54.94630       17.94285
C         47.34316       57.03072       16.78134
C         46.93955       57.99990       15.69191
N         47.55832       59.19816       15.57004
O         46.06453       57.68699       14.89799
H         49.44958       57.13205       15.41926
H         47.20526       55.32444       15.48288
H         48.08325       57.50262       17.46457
H         46.44017       56.77701       17.38008
H         48.31476       59.46835       16.21524
H         47.29697       59.84395       14.81012
N         47.47662       53.70844       17.51027
C         47.80229       52.75040       18.56015
C         46.86043       51.56547       18.71223
O         46.89958       50.94258       19.76410
H         46.60918       53.61796       16.96539
H         47.83120       53.29644       19.52909
H         48.81339       52.33056       18.37457
N         46.07139       51.11968       17.68967
C         45.21738       49.93315       17.80872
C         45.73162       48.83441       16.91002
O         46.65458       49.07231       16.14830
C         43.76102       50.29149       17.41539
C         43.12968       51.24472       18.42090
O         43.73511       50.89943       16.14685
H         46.10891       51.59036       16.77550
H         45.23606       49.52444       18.84168
H         43.12889       49.37037       17.41357
H         43.25428       50.29252       15.52490
H         43.76360       52.14431       18.56535
H         42.13361       51.56682       18.04944
H         42.99847       50.72406       19.39223
N         45.18194       47.58361       16.96393
C         45.52960       46.53545       16.00852
C         44.28206       46.00052       15.33310
O         43.20818       46.02708       15.91972
C         46.37160       45.37879       16.60649
C         47.71654       45.89195       17.17383
C         45.59622       44.54479       17.64247
C         48.78328       44.79166       17.15123
H         44.46666       47.38535       17.67894
H         46.16074       46.97189       15.20541
H         46.61412       44.71792       15.74644
H         47.58065       46.31207       18.19585
H         48.11777       46.69895       16.52519
H         45.21125       45.18988       18.45970
H         44.73871       44.03523       17.15464
H         46.23514       43.75624       18.08778
H         48.93018       44.45006       16.10249
H         49.75321       45.19218       17.51135
H         48.49836       43.91794       17.76913
N         44.36640       45.50816       14.06900
C         43.22639       45.00411       13.32705
C         43.59189       43.76086       12.53366
O         44.55704       43.76258       11.78340
C         42.56357       46.08767       12.44582
C         43.42936       47.15077       11.76840
O         43.99262       48.02689       12.70326
O         44.46100       46.63526       10.98171
H         45.27152       45.54483       13.58771
H         42.41300       44.70487       14.02602
H         41.87699       46.67213       13.09447
H         41.92557       45.58595       11.68670
N         42.78726       42.66706       12.62925
C         42.96112       41.44001       11.86091
C         44.27650       40.72960       12.19944
O         44.52473       40.51797       13.37922
C         41.78625       40.49343       12.21286
C         41.93817       39.12099       11.61270
C         42.30687       38.04460       12.43742
C         41.74044       38.90619       10.24092
C         42.49032       36.77364       11.89465
C         41.91082       37.62622        9.70271
C         42.29102       36.56248       10.52858
H         41.96341       42.73247       13.24774
H         42.88931       41.69752       10.79189
H         40.81134       40.93670       11.90954
H         41.76273       40.39335       13.32052
H         42.47461       38.19827       13.49698
H         41.45553       39.72692        9.59433
H         42.79207       35.95473       12.53448
H         41.75962       37.46089        8.64465
H         42.43611       35.57594       10.11023
N         45.12698       40.23341       11.22887
C         46.23996       39.34876       11.55433
C         47.43415       40.04413       12.16982
O         48.43120       39.38570       12.43660
C         46.60785       38.72005       10.19839
C         45.30911       38.84792        9.41435
C         44.86890       40.24703        9.80704
H         45.85487       38.54373       12.22094
H         47.34970       39.36122        9.67193
H         47.01243       37.68618       10.26733
H         45.40835       38.68859        8.32073
H         44.57590       38.12326        9.82588
H         45.55690       40.98653        9.33610
H         43.83862       40.44217        9.47703
N         47.40875       41.38468       12.41901
C         48.51623       42.08480       13.04824
C         48.78297       41.52726       14.43640
O         49.90839       41.62327       14.90608
C         48.21589       43.59119       13.12008
C         48.09675       44.21254       11.71320
C         47.84251       45.68348       11.77621
O         47.45944       46.25430       12.92840
O         47.98347       46.36977       10.77732
H         46.57103       41.92498       12.17368
H         49.42985       41.93526       12.42831
H         49.04957       44.10483       13.64802
H         47.27798       43.74878       13.69724
H         47.28763       43.75272       11.10546
H         49.05953       44.05163       11.18831
N         47.79782       40.88931       15.13395
C         48.05463       40.19258       16.37351
H         48.83347       40.69951       16.97947
H         47.11699       40.13188       16.96484
H         48.37410       39.15502       16.13637
H         46.84904       40.82371       14.73962
Ca        45.93659       48.26091       11.59287
O         45.18334       49.45149        9.15105
H         44.65113       49.25332        8.34142
H         45.27521       50.43683        9.16036
O         47.79806       48.74062       13.66460
H         48.12347       48.21981       14.43885
H         48.61347       49.15497       13.30498
O         45.32800       50.71751       13.48647
H         45.89951       51.51386       13.36163
H         45.43931       50.50419       14.44274

Ca 1.70



