%chk=loop1.cluster98.chk
%nprocshared=48
%mem=10GB
%nosave
#b3lyp/svp scf=(tight,noincore) Test 
#IOP(5/87=12) Density=Current Pop=(MK,readradii) iop(6/33=2) iop(6/42=6)

loop1.cluster98 

   0  1 
C         51.08876       77.28645      117.79934
C         51.48669       76.38824      118.92414
O         52.65948       76.31377      119.23716
H         50.29944       77.97078      118.17264
H         51.95130       77.89024      117.44565
H         50.68578       76.68318      116.95926
N         50.52785       75.66885      119.57040
C         50.76040       74.78321      120.71410
C         50.89602       73.32224      120.30269
O         51.21969       72.49652      121.14657
C         49.65359       74.95729      121.78916
C         48.23363       74.80052      121.28762
O         47.47240       73.77969      121.72107
O         47.73986       75.64173      120.55259
H         49.57897       75.73824      119.19264
H         51.68404       75.05170      121.22515
H         49.73598       75.96354      122.24996
H         49.83096       74.20971      122.59442
N         50.63069       72.92757      119.02844
C         50.48527       71.52639      118.65301
C         51.79527       70.94686      118.12679
O         52.29016       71.48446      117.14587
C         49.44254       71.48350      117.50925
C         49.06005       70.05962      117.13090
C         48.09827       70.01742      115.94277
C         47.71654       68.55813      115.67086
N         46.76923       68.44557      114.56622
H         50.30694       73.63912      118.35921
H         50.06798       70.96452      119.51335
H         49.85165       72.01968      116.62103
H         48.52262       72.02298      117.82822
H         48.56839       69.59786      118.01224
H         49.97093       69.48215      116.86654
H         48.58777       70.45637      115.04369
H         47.18493       70.60917      116.17329
H         47.25616       68.12748      116.58799
H         48.63475       67.97579      115.43175
H         47.19571       68.81361      113.68554
H         46.53069       67.43597      114.43447
H         45.89440       68.97311      114.78971
N         52.44119       69.85884      118.65419
C         52.13385       69.16666      119.90640
C         53.41088       68.45230      120.38074
O         53.40660       67.23831      120.52952
C         50.93174       68.18451      119.77672
C         51.06704       67.10801      118.72398
O         50.07466       66.21110      118.56587
O         52.05903       67.03566      118.01596
H         53.30842       69.57245      118.17057
H         51.89252       69.90698      120.69742
H         50.00718       68.74378      119.56331
H         50.78248       67.68233      120.76001
N         54.56698       69.13748      120.63357
C         54.66175       70.59148      120.56881
C         56.03979       71.12037      120.92722
O         56.94817       70.33591      121.16035
H         55.39374       68.58992      120.91571
H         53.92638       71.00764      121.28593
H         54.43797       70.95447      119.54660
N         56.30603       72.45633      120.97069
C         55.31908       73.49222      120.68865
C         55.38617       74.63789      121.69351
O         56.29462       74.72160      122.50540
C         55.37685       73.91794      119.19373
C         56.73608       74.18133      118.60694
O         56.83459       74.39223      117.40821
O         57.84601       74.14852      119.36560
H         57.27039       72.74676      121.18718
H         54.29394       73.09849      120.83089
H         54.73671       74.80464      119.00764
H         54.95317       73.08076      118.59965
N         54.36827       75.53586      121.69717
C         54.22839       76.68307      122.58368
C         55.13375       77.82538      122.20728
O         54.98820       78.90598      122.76975
H         53.63365       75.37781      121.02592
H         54.32957       76.38491      123.64578
H         53.19649       77.08074      122.43966
N         56.06062       77.68455      121.22554
C         56.81584       78.78524      120.66369
C         57.01488       78.51402      119.18875
O         57.08471       77.35619      118.78890
C         58.19215       78.95880      121.34540
C         58.08751       79.13691      122.86584
O         58.82283       80.08429      120.78887
H         56.14327       76.77359      120.76398
H         56.22370       79.72593      120.76486
H         58.80203       78.04824      121.14108
H         59.76108       80.08322      121.11188
H         57.44402       80.00474      123.12133
H         57.68258       78.21843      123.34026
H         59.09904       79.31133      123.29020
N         57.06666       79.52529      118.30041
C         57.23832       79.29050      116.88147
C         58.20323       80.30452      116.33494
O         57.90192       81.49265      116.32642
C         55.86821       79.23046      116.14297
C         56.07679       79.25820      114.60364
C         54.91393       80.33317      116.63422
C         54.80788       79.00048      113.79375
H         56.94424       80.49587      118.63787
H         57.69202       78.28697      116.70617
H         55.39365       78.25968      116.41631
H         56.81130       78.47496      114.31464
H         56.48703       80.24664      114.30621
H         53.92271       80.26141      116.15058
H         54.72210       80.20072      117.72107
H         55.34101       81.34047      116.46427
H         54.42618       77.97814      113.99529
H         54.02122       79.74599      114.01646
H         55.04043       79.08308      112.71235
N         59.38095       79.88325      115.80972
C         60.29561       80.76344      115.11168
C         60.27603       80.46303      113.61777
O         60.87536       81.20975      112.85935
C         61.71637       80.65497      115.74559
C         62.33748       79.24981      115.62329
O         61.66996       80.97613      117.11478
H         59.59991       78.87505      115.84157
H         59.95460       81.81813      115.20282
H         62.40140       81.36447      115.23098
H         61.11664       81.79203      117.22484
H         61.73545       78.48217      116.15200
H         62.45436       78.94691      114.56278
H         63.34252       79.24497      116.09746
N         59.59563       79.37472      113.13038
C         59.58587       78.94041      111.74397
C         60.97281       78.55143      111.29682
O         61.96136       79.04408      111.82453
C         58.91635       79.92207      110.74651
C         57.49691       80.30556      111.17699
O         58.85491       79.30536      109.48292
H         59.09403       78.75679      113.77619
H         58.97980       78.00425      111.72986
H         59.53497       80.84326      110.67778
H         58.54773       79.98496      108.82879
H         57.50753       80.80704      112.16530
H         57.06497       81.01497      110.43790
H         56.84866       79.40562      111.21686
N         61.10600       77.62179      110.32167
C         62.37548       77.25465      109.75282
C         62.86737       75.84999      110.12042
O         64.07488       75.74812      110.29040
C         62.33838       77.48896      108.22436
C         63.72309       77.76187      107.59812
C         64.24996       79.17139      107.96234
C         65.61394       79.46025      107.32601
N         66.06696       80.81385      107.65609
H         60.26204       77.22756      109.92328
H         63.13648       77.94732      110.16075
H         61.70787       78.37415      107.98348
H         61.85367       76.60855      107.75107
H         63.60933       77.73214      106.49271
H         64.44304       76.96988      107.89409
H         64.36480       79.29035      109.05718
H         63.51875       79.93172      107.60665
H         65.54733       79.35709      106.22048
H         66.35274       78.72251      107.70874
H         65.42384       81.52214      107.23246
H         66.09802       80.94704      108.69338
H         67.02805       80.95862      107.27098
N         62.11776       74.69345      110.23713
C         60.66559       74.46165      110.29649
C         59.81545       74.90260      109.12358
O         58.83012       75.60585      109.31052
C         60.10385       74.75522      111.70829
C         60.68008       73.72275      112.70121
C         60.11790       73.88195      114.07273
O         59.33356       73.05442      114.50904
O         60.51697       74.90609      114.84826
H         62.67164       73.84119      110.41816
H         60.52536       73.36086      110.21164
H         59.00079       74.59506      111.69928
H         60.30013       75.79696      112.03138
H         61.78784       73.77016      112.75941
H         60.40232       72.70725      112.33675
N         60.05577       74.37815      107.89266
C         59.19357       74.62584      106.75499
H         58.33405       75.28553      107.00117
H         59.78416       75.09775      105.94620
H         58.78320       73.65831      106.39396
H         60.85293       73.73671      107.76852
Ca        59.61644       73.54121      117.27944
O         59.61402       76.42513      117.26307
H         58.81982       76.13494      117.77195
H         60.11844       76.98828      117.89999
O         62.19536       72.75184      116.80459
H         62.98627       72.89330      117.38132
H         62.16970       71.77696      116.63522
O         58.08773       71.31678      116.67116
H         57.84268       70.57080      117.27240
H         57.28810       71.46926      116.10837
O         61.03343       74.42505      119.53633
H         61.95542       74.54348      119.87397
H         60.53315       74.02916      120.29336

Ca 1.70



