%chk=loop4.cluster95.chk
%nprocshared=48
%mem=10GB
%nosave
#b3lyp/svp scf=(tight,noincore) Test 
#IOP(5/87=12) Density=Current Pop=(MK,readradii) iop(6/33=2) iop(6/42=6)

loop4.cluster95 

   -3  1 
C         53.77580       17.97500       38.91253
C         54.08467       17.21564       40.17647
O         54.73483       17.75685       41.05772
H         53.07646       18.80807       39.13489
H         54.70387       18.38860       38.46860
H         53.30286       17.31546       38.15366
N         53.59811       15.95272       40.34228
C         53.81573       15.12343       41.52877
C         53.37451       15.82974       42.78958
O         54.16823       16.01397       43.70659
C         55.26457       14.63267       41.65466
C         55.76816       14.03741       40.38677
O         56.90394       14.50571       39.84996
O         55.16670       13.12394       39.84548
H         53.00351       15.55930       39.59729
H         53.18537       14.21270       41.40600
H         55.29501       13.85182       42.44706
H         55.94101       15.46315       41.94955
N         52.09430       16.24742       42.90261
C         51.59108       16.95738       44.06401
C         50.57757       16.05875       44.73899
O         49.62907       15.66406       44.07282
C         50.89686       18.26685       43.59087
C         51.89812       19.19126       42.85688
C         50.20363       18.99847       44.75816
C         51.20985       20.35810       42.15113
H         51.44040       16.04734       42.12759
H         52.41310       17.23037       44.75692
H         50.10751       17.96990       42.86399
H         52.40648       18.61102       42.06232
H         52.67620       19.57011       43.55693
H         49.61340       19.85904       44.38606
H         49.47765       18.33178       45.26910
H         50.94638       19.35139       45.50329
H         50.41249       19.97137       41.48007
H         50.76867       21.06835       42.87828
H         51.95099       20.90668       41.53366
N         50.62845       15.72198       46.05877
C         51.69703       16.08969       46.99161
C         52.98393       15.30925       46.77719
O         54.02505       15.79343       47.18843
C         51.22423       15.95603       48.46708
C         50.56642       14.65382       48.87847
O         50.04713       14.54641       50.11598
O         50.46081       13.71545       48.10446
H         49.81553       15.21060       46.42217
H         51.93260       17.17141       46.87764
H         50.47419       16.75538       48.64143
H         52.08010       16.14435       49.15372
N         52.98615       14.07155       46.20678
C         54.18204       13.24498       46.08413
C         54.79764       12.92015       47.43276
O         54.07741       12.55901       48.35378
H         52.09804       13.67693       45.86718
H         54.93031       13.73463       45.42239
H         53.88635       12.28658       45.60930
N         56.15057       13.00548       47.60473
C         56.80801       12.77083       48.89464
C         56.40054       13.81001       49.93112
O         56.54632       13.56146       51.12028
C         58.34637       12.72368       48.72782
C         58.92297       13.95407       48.06566
O         59.12647       13.95938       46.86175
O         59.34185       14.99410       48.80622
H         56.72649       13.23335       46.78285
H         56.48308       11.77351       49.26946
H         58.58823       11.85027       48.08327
H         58.85586       12.54518       49.70018
N         55.86721       15.00005       49.53676
C         55.35231       16.01242       50.44123
C         56.41299       16.79903       51.18237
O         56.06397       17.79399       51.79993
H         55.79187       15.19205       48.53489
H         54.62110       15.56441       51.14889
H         54.79635       16.74738       49.81933
N         57.72721       16.42481       51.16492
C         58.78805       17.11419       51.88931
C         59.13371       18.48037       51.32271
O         60.01570       19.13303       51.86791
C         58.52059       17.10068       53.40904
C         58.37518       15.64061       53.88241
C         58.38545       15.46726       55.37510
N         58.28601       14.22428       55.89859
O         58.50673       16.43184       56.11613
H         58.00204       15.57989       50.66498
H         59.72436       16.53032       51.74611
H         57.61902       17.68621       53.69289
H         59.39752       17.56025       53.91244
H         59.22868       15.04682       53.48914
H         57.43313       15.21163       53.47479
H         58.18845       13.40490       55.27967
H         58.31359       14.08199       56.91816
N         58.55150       18.94966       50.18265
C         58.96477       20.19532       49.55153
C         60.38641       20.08289       49.04038
O         60.67840       19.21018       48.23282
C         58.00082       20.56618       48.39187
C         56.63078       20.93986       48.97764
C         58.51861       21.75187       47.55837
H         57.81913       18.39328       49.72018
H         58.91082       21.02146       50.29480
H         57.89532       19.69822       47.70141
H         55.92486       21.21796       48.16901
H         56.19407       20.09899       49.55413
H         56.74175       21.81094       49.66196
H         59.48374       21.50158       47.07041
H         57.80090       21.98529       46.74473
H         58.65939       22.65008       48.19567
N         61.31263       20.99423       49.44381
C         62.65270       21.04094       48.88961
C         62.61181       21.50782       47.44527
O         61.99592       22.52112       47.15314
C         63.52873       22.05418       49.65064
C         64.94225       22.01325       49.11595
N         65.70999       20.91291       49.29756
O         65.38638       22.96976       48.49903
H         61.04457       21.70059       50.14533
H         63.12808       20.04116       48.99891
H         63.55292       21.82321       50.73599
H         63.09775       23.07295       49.52207
H         65.35360       20.10932       49.83578
H         66.66457       20.87134       48.91200
N         63.36266       20.86455       46.51743
C         63.57733       21.40198       45.17569
C         64.31499       20.37478       44.35316
O         65.25122       19.76143       44.84355
C         64.43215       22.69621       45.23705
C         64.78800       23.24349       43.86446
C         63.79748       23.74058       42.99662
C         66.13032       23.25177       43.44555
C         64.14979       24.22960       41.73015
C         66.47654       23.73296       42.18095
C         65.48768       24.22114       41.31754
O         65.81479       24.67970       40.09157
H         63.86585       20.01418       46.80717
H         62.60005       21.61709       44.69157
H         65.36880       22.44915       45.78294
H         63.91508       23.49172       45.81257
H         62.75809       23.75075       43.29907
H         66.90908       22.87462       44.09541
H         63.38375       24.61198       41.06623
H         67.51436       23.72385       41.87186
H         66.72895       24.66587       39.77134
N         63.98018       20.20231       43.04694
C         64.72963       19.29516       42.19743
C         64.81835       19.79896       40.75309
O         65.94340       20.02545       40.32795
C         64.23825       17.83572       42.34727
C         65.19620       16.84792       41.64949
C         64.60196       15.47470       41.50931
O         64.48248       14.97590       40.40047
O         64.20799       14.78408       42.59540
H         63.28325       20.83466       42.63972
H         65.78319       19.29265       42.56246
H         63.21566       17.75711       41.95430
H         64.18068       17.54768       43.42157
H         66.14144       16.78630       42.23470
H         65.44569       17.21048       40.63092
N         63.76610       19.97689       39.88746
C         62.32794       19.86293       40.16012
C         61.59318       21.06656       39.55707
O         62.21174       21.87093       38.87093
C         61.78756       18.54200       39.57475
C         61.96851       18.40028       38.05919
C         61.72025       16.97998       37.65405
O         60.54177       16.40060       37.92354
O         62.60404       16.33150       37.11670
H         64.02454       20.23414       38.92277
H         62.12398       19.82134       41.24183
H         60.71233       18.41579       39.83211
H         62.33446       17.71100       40.05280
H         63.00712       18.64848       37.76553
H         61.27235       19.08568       37.53021
N         60.26026       21.25179       39.76905
C         59.54352       22.35789       39.16103
H         58.50092       22.39402       39.54115
H         60.03979       23.32285       39.40172
H         59.51120       22.23139       38.05622
H         59.74511       20.60516       40.38303
Ca        57.87023       15.89608       37.79985
O         59.69546       13.61055       38.41948
H         59.47419       13.33788       39.34484
H         60.66030       13.82994       38.45012
O         57.90826       18.31150       39.17154
H         56.92512       18.27136       39.27090
H         58.24081       18.53152       40.07576
O         56.46371       13.64179       36.90207
H         55.75727       13.92075       37.53428
H         56.12736       12.80431       36.50078
O         58.58780       18.03293       36.17612
H         58.81588       17.97377       35.21558
H         58.33237       18.97690       36.32318
O         58.06458       15.19570       35.13157
H         58.65234       15.56374       34.42740
H         57.26372       14.86588       34.65321

Ca 1.70



