%chk=loop1.cluster42.chk
%nprocshared=48
%mem=10GB
%nosave
#b3lyp/svp scf=(tight,noincore) Test 
#IOP(5/87=12) Density=Current Pop=(MK,readradii) iop(6/33=2) iop(6/42=6)

loop1.cluster42 

   0  1 
C         41.45925       38.00048       28.98383
C         42.04631       39.32360       28.60457
O         43.01266       39.36909       27.85563
H         40.41050       37.94129       28.62165
H         42.04229       37.16236       28.54944
H         41.46403       37.91131       30.09056
N         41.48792       40.46324       29.09592
C         41.96726       41.80594       28.80489
C         41.92659       42.07797       27.30910
O         42.85935       42.65109       26.76629
C         43.35793       42.02566       29.44986
C         43.77955       43.46515       29.41938
O         42.98478       44.40443       29.95615
O         44.84609       43.78796       28.92240
H         40.66194       40.37604       29.70922
H         41.24935       42.50198       29.29144
H         44.12800       41.39137       28.95678
H         43.29709       41.72162       30.51634
N         40.87311       41.62532       26.56989
C         40.84375       41.77164       25.11900
C         40.29613       43.11678       24.71381
O         40.46417       43.50668       23.56284
C         39.98501       40.67350       24.46538
C         40.50808       39.26276       24.77046
C         39.80680       38.22723       23.88316
C         40.19582       36.78295       24.25883
N         40.51903       35.98805       23.07377
H         40.12461       41.09178       27.03472
H         41.87860       41.66796       24.72502
H         40.00279       40.83812       23.36600
H         38.92843       40.74824       24.81265
H         40.35646       39.03242       25.84678
H         41.59764       39.21037       24.54674
H         40.10483       38.45371       22.83513
H         38.69978       38.32437       23.94199
H         39.34726       36.32098       24.81322
H         41.07681       36.76220       24.93739
H         40.66522       34.99251       23.35745
H         39.75214       36.03811       22.36555
H         41.40994       36.34589       22.65540
N         39.52780       43.83746       25.57129
C         38.87567       45.06580       25.17737
C         39.87504       46.20448       25.16522
O         39.72408       47.09885       24.35717
C         37.68776       45.32612       26.13816
C         36.72283       46.41162       25.74140
O         35.65070       46.65630       26.51851
O         36.86711       47.03850       24.70792
H         39.32190       43.45592       26.50822
H         38.42756       44.92887       24.16479
H         38.07334       45.53271       27.15785
H         37.07834       44.39558       26.17209
N         40.89333       46.26934       26.08016
C         41.71032       47.46464       26.24028
C         41.04306       48.38607       27.24772
O         41.65719       48.75607       28.23764
H         41.01739       45.50710       26.75977
H         41.84484       47.98324       25.26355
H         42.73029       47.18001       26.58325
N         39.75652       48.78430       27.03832
C         38.98482       49.65231       27.91452
C         38.65241       49.04631       29.26946
O         38.13254       47.93997       29.30931
C         37.60069       49.91996       27.27099
C         37.64059       50.83588       26.07764
O         37.35406       52.00957       26.23960
O         37.83050       50.39926       24.81493
H         39.28824       48.46548       26.18729
H         39.50629       50.62580       28.04782
H         36.98486       50.44873       28.03464
H         37.05580       48.97726       27.04323
N         38.66666       49.85236       30.37987
C         37.85966       49.57021       31.56468
C         38.52232       48.71243       32.60967
O         38.63562       49.14437       33.74933
H         38.99814       50.82243       30.26475
H         36.89385       49.11308       31.26023
H         37.60031       50.54138       32.04431
N         38.95869       47.46556       32.30468
C         39.56402       46.58726       33.29549
C         38.50692       45.96741       34.20329
O         37.32161       46.15481       33.98046
C         40.48434       45.55846       32.59662
C         39.75566       44.56846       31.67422
O         41.42273       46.28190       31.84302
H         38.90584       47.15377       31.33458
H         40.23819       47.20085       33.93477
H         41.01344       44.97203       33.38444
H         42.24580       45.73532       31.80352
H         39.16683       45.07138       30.88278
H         40.50177       43.92222       31.16858
H         39.07761       43.91936       32.25394
N         38.90508       45.22802       35.27465
C         37.97871       44.65116       36.25705
C         38.25285       45.19071       37.66411
O         37.51910       44.83886       38.58384
C         38.06065       43.10072       36.20992
C         39.50340       42.59943       36.48718
C         37.51513       42.59982       34.86063
C         39.61770       41.08102       36.56234
H         39.91236       45.08554       35.41175
H         36.93035       44.94155       36.02383
H         37.38892       42.69515       36.99945
H         39.83570       43.00772       37.46553
H         40.20947       42.94841       35.70437
H         36.46652       42.94252       34.72428
H         38.12229       42.98676       34.02296
H         37.50330       41.49412       34.80785
H         39.41881       40.61736       35.57475
H         40.65249       40.81013       36.85947
H         38.90891       40.68108       37.31630
N         39.26164       46.07691       37.90168
C         39.53481       46.69559       39.18908
C         40.97021       46.41269       39.61152
O         41.67191       45.65024       38.95444
C         39.16596       48.21454       39.10382
C         39.88519       49.01093       38.00204
O         37.77861       48.31066       38.89455
H         39.86435       46.36771       37.12308
H         38.88753       46.27573       39.99359
H         39.40971       48.72885       40.06302
H         37.40819       48.89568       39.61107
H         39.87638       48.50091       37.02052
H         39.35570       49.97606       37.84753
H         40.93337       49.22993       38.29109
N         41.46605       47.01394       40.71738
C         42.81523       46.84082       41.23300
C         42.73743       46.52297       42.72002
O         43.40212       45.59399       43.15729
C         43.64532       48.09397       40.86444
C         45.05556       48.10953       41.45851
O         42.97546       49.27191       41.23412
H         40.86085       47.69158       41.19228
H         43.34293       45.99031       40.73984
H         43.75767       48.04652       39.75069
H         42.91230       49.83803       40.41893
H         45.00875       48.24945       42.55905
H         45.60076       47.16989       41.22901
H         45.62470       48.96012       41.02328
N         41.90562       47.22503       43.55053
C         41.75871       46.92480       44.96465
C         40.30747       46.58401       45.28778
O         39.41495       47.34509       44.93607
C         42.25364       48.14279       45.75722
C         42.40281       47.83251       47.25530
C         43.14979       48.93689       48.01924
C         42.41028       50.28162       48.02566
N         43.13351       51.27126       48.82538
H         41.35434       48.01114       43.18191
H         42.40767       46.06963       45.25261
H         41.58423       49.01388       45.58162
H         43.26412       48.39459       45.36800
H         43.01698       46.91066       47.35799
H         41.40993       47.63971       47.71575
H         44.15700       49.07433       47.56417
H         43.29200       48.59443       49.06642
H         41.38881       50.14787       48.44573
H         42.31998       50.65816       46.98496
H         43.07047       51.02455       49.83992
H         44.13814       51.31625       48.53694
H         42.70047       52.21145       48.67863
N         40.00843       45.46588       46.00884
C         38.65163       45.13813       46.44013
C         37.66200       44.87001       45.29541
O         36.61193       45.49589       45.31875
C         38.66189       44.00140       47.49966
C         37.25168       43.58724       47.98357
C         36.44512       44.67148       48.66028
O         36.98770       45.86689       48.96242
O         35.28268       44.45216       48.96005
H         40.78608       44.87106       46.33714
H         38.26786       46.02626       46.98014
H         39.26283       44.33350       48.37804
H         39.15369       43.09997       47.07836
H         37.34078       42.74164       48.69969
H         36.68391       43.21552       47.10570
N         37.84238       43.96338       44.28553
C         39.03950       43.19430       44.02698
H         39.85724       43.38682       44.73641
H         38.79768       42.11153       44.04180
H         39.39751       43.45059       43.00469
H         37.06682       43.83717       43.61510
Ca        38.15859       48.86371       23.18615
O         35.42744       49.80627       22.65299
H         35.00320       48.93097       22.83593
H         35.21209       49.99781       21.70583
O         37.85677       49.50633       20.11616
H         38.74042       49.79736       19.77794
H         37.31180       49.35993       19.30286
O         37.72642       51.56145       22.25032
H         37.50374       52.18687       21.51880
H         38.29587       52.08500       22.86766
O         40.43414       50.57572       22.79171
H         41.37624       50.62127       23.08771
H         40.47145       50.64483       21.80450
O         40.32538       47.45963       21.60494
H         41.00460       47.19630       22.27479
H         40.01170       46.60118       21.22646
O         37.23194       46.72927       21.34525
H         37.70796       45.90050       21.60328
H         37.37930       46.80787       20.36943

Ca 1.70



