%chk=loop1.cluster5.chk
%nprocshared=48
%mem=10GB
%nosave
#b3lyp/svp scf=(tight,noincore) Test 
#IOP(5/87=12) Density=Current Pop=(MK,readradii) iop(6/33=2) iop(6/42=6)

loop1.cluster5 

   0  1 
C         48.25861       38.28804       39.76779
C         47.79238       38.26145       38.35146
O         46.60342       38.42967       38.10712
H         49.05077       39.06028       39.86221
H         47.42264       38.55122       40.44974
H         48.67053       37.29741       40.04772
N         48.69729       38.10193       37.34587
C         48.32672       38.17867       35.94602
C         48.74174       36.91074       35.20701
O         49.28757       35.99383       35.81134
C         48.97177       39.44948       35.35859
C         48.29995       39.98741       34.12920
O         47.22620       39.56166       33.73746
O         48.81996       41.04086       33.51666
H         49.69632       37.99524       37.58442
H         47.22264       38.28707       35.85685
H         50.05617       39.26407       35.18723
H         48.88220       40.28316       36.08694
N         48.44468       36.77513       33.89371
C         48.61152       35.56644       33.12645
C         50.07104       35.26487       32.74367
O         50.50544       34.17260       33.07498
C         47.64090       35.65419       31.93142
C         47.54219       34.37772       31.10706
C         46.65945       34.63957       29.87684
C         46.55919       33.42190       28.95276
N         45.73831       32.35541       29.52736
H         47.93817       37.52678       33.43596
H         48.22314       34.71802       33.73658
H         47.91230       36.51517       31.29925
H         46.61940       35.87041       32.32518
H         47.12602       33.57249       31.75009
H         48.55402       34.08100       30.76159
H         47.13884       35.45898       29.29714
H         45.64120       34.97838       30.17321
H         47.58192       33.04785       28.72546
H         46.09296       33.74587       27.99649
H         44.74722       32.68132       29.60751
H         45.76793       31.52859       28.88885
H         46.08914       32.06225       30.46533
N         50.89698       36.08698       32.00911
C         50.61656       37.43922       31.53568
C         51.84915       38.32587       31.71306
O         52.93676       37.91931       31.31824
C         50.28762       37.39313       30.02797
C         49.85330       38.74196       29.52048
O         48.82152       39.37523       30.10557
O         50.42345       39.26105       28.57486
H         51.80755       35.68680       31.72711
H         49.74268       37.87708       32.05196
H         49.45276       36.69450       29.85141
H         51.15413       37.01736       29.44212
N         51.73288       39.60407       32.16458
C         52.86077       40.52004       32.11937
C         52.40956       41.93136       32.37157
O         52.11989       42.27455       33.51047
H         50.80300       39.96055       32.42510
H         53.29328       40.48359       31.09557
H         53.66580       40.22347       32.82898
N         52.33743       42.81502       31.33097
C         51.94222       44.20498       31.49480
C         53.16113       45.06999       31.27129
O         53.93554       44.74942       30.37914
C         50.84471       44.62344       30.48863
C         49.70772       43.67034       30.48549
O         49.24606       43.22982       31.64877
O         49.32870       43.15149       29.44757
H         52.59498       42.49580       30.38449
H         51.52603       44.33335       32.50950
H         51.23624       44.69798       29.45191
H         50.47349       45.60959       30.81206
N         53.40058       46.22580       31.95114
C         52.48732       46.85537       32.89321
C         51.78768       48.02193       32.23745
O         51.07678       48.74403       32.92304
H         54.23124       46.77310       31.67419
H         53.08943       47.21916       33.75362
H         51.71501       46.19160       33.30619
N         51.96628       48.28695       30.90671
C         51.47487       49.47662       30.24983
C         52.08396       50.67927       30.95287
O         51.35596       51.52342       31.44138
C         49.91951       49.51246       30.09716
C         49.36384       48.23793       29.46885
O         49.55008       50.54865       29.23097
H         52.55108       47.66875       30.32899
H         51.87236       49.47167       29.20948
H         49.41778       49.64067       31.08235
H         49.86208       51.38509       29.63849
H         49.82075       48.05792       28.47172
H         49.54414       47.37887       30.12682
H         48.26320       48.33291       29.34063
N         53.44540       50.77716       31.06410
C         54.17731       51.96045       31.52814
C         54.19563       53.02265       30.43434
O         55.28664       53.38544       30.00620
C         53.75355       52.50924       32.92853
C         53.90099       51.46258       34.06747
C         54.55009       53.78515       33.28261
C         55.33989       51.01761       34.37445
H         54.01261       49.97942       30.74019
H         55.24237       51.65667       31.63622
H         52.68979       52.81662       32.89999
H         53.28994       50.56425       33.83737
H         53.49178       51.91427       34.99786
H         55.64470       53.60116       33.26107
H         54.33551       54.59917       32.55962
H         54.26604       54.15287       34.29143
H         55.78594       50.46944       33.52085
H         55.98840       51.87898       34.63666
H         55.33499       50.34291       35.25617
N         53.05142       53.54607       29.89904
C         53.06021       54.55662       28.85438
C         52.13135       55.71224       29.21503
O         51.41115       55.63948       30.20714
C         52.73201       53.91348       27.47936
C         51.29476       53.40237       27.38252
O         53.60179       52.83385       27.24110
H         52.13947       53.20661       30.20734
H         54.08607       54.97973       28.76087
H         52.85526       54.66845       26.66896
H         54.47506       53.21360       26.96052
H         51.13292       52.92845       26.39070
H         51.09547       52.64639       28.16456
H         50.57712       54.24236       27.48792
N         52.14473       56.84362       28.46897
C         51.40008       58.05681       28.81343
C         49.88867       57.94456       28.72774
O         49.34997       57.52058       27.71381
C         51.84018       59.25396       27.94889
C         53.24527       59.71762       28.35658
O         51.73078       58.96607       26.57402
H         52.80364       56.86787       27.67552
H         51.65567       58.33072       29.86184
H         51.17773       60.12440       28.15546
H         52.55221       58.49657       26.27851
H         53.59648       60.52267       27.68238
H         53.19805       60.12434       29.39266
H         53.96961       58.87733       28.34964
N         49.14918       58.44559       29.76040
C         47.69591       58.54506       29.80348
C         47.03363       57.19024       29.74764
O         45.95998       57.05232       29.18347
C         47.12639       59.55681       28.78662
C         47.70484       60.96094       29.00802
C         47.08777       61.98129       28.04318
C         47.50659       63.40577       28.43516
N         47.09881       64.38151       27.42562
H         49.65321       58.80674       30.58505
H         47.44627       58.94057       30.81423
H         46.02677       59.62299       28.94672
H         47.31234       59.21627       27.74636
H         48.80846       60.95211       28.85964
H         47.49214       61.26635       30.05515
H         45.97698       61.92483       28.06737
H         47.43355       61.73924       27.01412
H         48.61037       63.45266       28.55107
H         47.03995       63.66472       29.41430
H         46.05670       64.42793       27.35544
H         47.46619       65.32194       27.69856
H         47.50735       64.12298       26.49803
N         47.63862       56.13967       30.35417
C         47.03969       54.82303       30.48300
C         48.10995       53.80564       30.80482
O         48.22136       52.87734       30.02702
C         45.92681       54.76467       31.55823
C         44.50909       54.86940       30.99034
C         43.51268       54.74523       32.10543
O         42.76455       55.67326       32.36421
O         43.44984       53.61277       32.83357
H         48.59189       56.27938       30.71467
H         46.62551       54.49940       29.49880
H         46.09382       55.53756       32.33744
H         45.96540       53.77041       32.05809
H         44.33222       54.04449       30.26247
H         44.36266       55.83295       30.47169
N         48.93268       53.84624       31.89904
C         48.95722       54.87302       32.92347
H         48.23358       55.68788       32.77672
H         48.74619       54.40782       33.90685
H         49.97367       55.32218       32.95661
H         49.60845       53.08116       32.01313
Ca        47.86773       41.54592       31.58638
O         45.69987       43.32499       30.96574
H         44.91192       43.37172       30.37041
H         45.39935       43.75312       31.80531
O         45.42901       39.76694       31.14753
H         45.56214       39.07074       30.45619
H         44.61888       39.48043       31.63846
O         46.51922       42.65437       33.76397
H         46.83690       43.54050       34.06696
H         46.54386       42.08312       34.57008
O         46.78542       41.11657       28.81722
H         46.89104       40.21667       28.41811
H         46.50306       41.69308       28.06468

Ca 1.70



