%chk=loop2.cluster21.chk
%nprocshared=48
%mem=10GB
%nosave
#b3lyp/svp scf=(tight,noincore) Test 
#IOP(5/87=12) Density=Current Pop=(MK,readradii) iop(6/33=2) iop(6/42=6)

loop2.cluster21 

   -2  1 
C         58.94007       50.15517       16.33392
C         60.24766       49.91266       15.65564
O         61.19261       50.65161       15.89622
H         58.16677       49.43863       15.98449
H         59.08532       50.00914       17.42500
H         58.59756       51.18933       16.13463
N         60.40032       48.83934       14.83708
C         61.70128       48.47323       14.31698
C         62.05499       49.33171       13.12175
O         61.32350       49.33439       12.14093
C         61.72432       46.97182       14.03080
C         63.10924       46.43217       13.88638
O         64.19111       47.24568       13.89258
O         63.24354       45.24007       13.74494
H         59.60671       48.19100       14.70876
H         62.44144       48.62400       15.12945
H         61.09434       46.71972       13.15045
H         61.30139       46.44702       14.91696
N         63.18451       50.09129       13.14985
C         63.56165       51.01778       12.09382
C         64.66753       50.45543       11.20786
O         64.96138       51.05853       10.18533
C         63.97139       52.35059       12.73542
H         63.80077       50.00697       13.95907
H         62.68298       51.19578       11.43649
H         64.92247       52.22772       13.30064
H         64.10902       53.14087       11.96970
H         63.19125       52.68420       13.45479
N         65.30795       49.28973       11.52453
C         66.24680       48.61301       10.63142
C         65.82112       47.16398       10.33530
O         66.52111       46.48949        9.59442
C         67.69969       48.77348       11.14452
C         68.00669       48.27727       12.52536
O         67.08752       47.61557       13.23601
O         69.11141       48.47520       13.00660
H         65.12032       48.85590       12.43195
H         66.25325       49.11037        9.63931
H         67.92311       49.86235       11.13350
H         68.39747       48.27351       10.43966
N         64.64770       46.64544       10.81490
C         64.12455       45.33959       10.43154
C         65.03020       44.18524       10.79336
O         65.33694       43.37423        9.93144
H         64.04787       47.21610       11.42148
H         63.91278       45.33017        9.34073
H         63.15398       45.18718       10.95541
N         65.48543       44.04857       12.06675
C         66.32440       42.94351       12.52305
C         65.69001       42.17251       13.69026
O         66.32287       41.27254       14.22519
C         67.71618       43.50675       12.86610
C         67.78295       44.54058       13.96539
N         68.96457       45.13651       14.23486
O         66.78773       44.85994       14.59671
H         65.25790       44.78744       12.73720
H         66.48327       42.20743       11.70406
H         68.10151       43.99294       11.94258
H         68.39905       42.67096       13.12471
H         69.80851       44.88210       13.70401
H         69.03313       45.86648       14.95370
N         64.41058       42.43322       14.08739
C         63.70466       41.70899       15.12808
C         64.06693       42.06396       16.55304
O         63.42237       41.52503       17.44119
H         63.85879       43.09801       13.54886
H         63.79576       40.61573       14.95921
H         62.62700       41.97241       15.04195
N         65.06011       42.95031       16.87098
C         65.36102       43.28934       18.26423
C         65.28451       44.79435       18.47728
O         65.26706       45.53291       17.50445
C         66.71449       42.67336       18.69156
C         66.75682       41.17062       18.33276
O         67.77776       43.36747       18.08996
H         65.62673       43.37226       16.12820
H         64.58922       42.84770       18.92816
H         66.80889       42.78176       19.79342
H         68.47590       42.73962       17.76807
H         66.81052       41.04476       17.22714
H         67.65960       40.69901       18.77201
H         65.85522       40.64384       18.70598
N         65.22132       45.31880       19.73909
C         65.05959       46.75166       19.97341
C         66.41882       47.35066       20.29244
O         67.04600       46.96239       21.26574
C         64.01499       47.05354       21.10196
C         62.66502       46.33683       20.83975
C         63.79269       48.57698       21.24164
C         61.65405       46.49245       21.98124
H         65.26112       44.68674       20.55120
H         64.66297       47.23524       19.05491
H         64.42493       46.66703       22.06026
H         62.85656       45.24974       20.73396
H         62.20054       46.70469       19.90222
H         64.74456       49.09512       21.45498
H         63.35189       48.99467       20.31060
H         63.11954       48.82000       22.08792
H         62.10704       46.17407       22.94404
H         61.29310       47.53765       22.07147
H         60.76986       45.85171       21.77962
N         66.89018       48.36214       19.51428
C         68.07067       49.15879       19.82971
C         67.58416       50.40702       20.54823
O         66.39780       50.67168       20.55937
C         68.93843       49.45416       18.56550
C         68.11135       49.66366       17.31435
O         67.89080       50.78544       16.88519
O         67.52763       48.56595       16.76085
H         66.27841       48.70496       18.77503
H         68.70107       48.63323       20.57947
H         69.56429       48.56468       18.34360
H         69.64519       50.29027       18.76628
N         68.44594       51.11816       21.32379
C         67.96312       52.11082       22.28420
C         67.20715       53.28089       21.67322
O         66.14488       53.59167       22.20391
C         69.08639       52.53192       23.24985
C         68.63421       53.56549       24.25907
C         69.35737       54.76078       24.39464
C         67.49772       53.35351       25.06643
C         68.95602       55.72653       25.32003
C         67.09117       54.33174       25.97819
C         67.82195       55.51502       26.10771
H         69.44008       50.85378       21.33571
H         67.22822       51.58711       22.93580
H         69.96080       52.90814       22.68298
H         69.41415       51.62239       23.80060
H         70.23686       54.93927       23.78894
H         66.91739       52.44412       24.98341
H         69.52507       56.64046       25.42410
H         66.20910       54.17173       26.58517
H         67.51012       56.26809       26.81901
N         67.63091       54.00392       20.59177
C         66.85550       55.09865       20.02806
C         65.40337       54.72990       19.73222
O         64.52510       55.55867       19.89536
C         67.61235       55.42510       18.73777
C         69.04280       55.08670       19.12026
C         68.87644       53.77531       19.88896
H         66.89061       55.94672       20.74669
H         67.32284       54.70940       17.93463
H         67.44676       56.46238       18.37464
H         69.76976       55.05065       18.28174
H         69.37736       55.86458       19.84530
H         68.75874       52.89937       19.21276
H         69.75116       53.65008       20.55538
N         65.09453       53.46451       19.34062
C         63.71983       52.99933       19.14026
C         62.99762       53.00948       20.47003
O         61.93228       53.60428       20.57154
C         63.74979       51.59920       18.51401
C         64.46055       51.69718       17.14759
C         64.82166       50.38856       16.58774
O         65.42985       50.34259       15.53346
O         64.59610       49.27187       17.28762
H         65.86602       52.79412       19.22330
H         63.18931       53.65241       18.41266
H         62.72034       51.19738       18.36396
H         64.28617       50.90845       19.19680
H         65.43550       52.21219       17.22510
H         63.82312       52.25460       16.43141
N         63.56771       52.43120       21.56250
C         63.00256       52.55680       22.88615
H         61.99650       52.09438       22.92345
H         63.66575       52.05659       23.62493
H         62.93627       53.63267       23.16273
H         64.46585       51.93985       21.46281
Ca        65.77325       47.75335       15.48241
O         62.92897       46.77691       17.00269
H         62.95403       47.75070       17.12599
H         62.22818       46.50025       17.63666
O         68.25721       46.25426       17.24720
H         68.35801       45.30316       17.02679
H         68.33706       46.31818       18.22912

Ca 1.70



