%chk=loop1.cluster148.chk
%nprocshared=48
%mem=10GB
%nosave
#b3lyp/svp scf=(tight,noincore) Test 
#IOP(5/87=12) Density=Current Pop=(MK,readradii) iop(6/33=2) iop(6/42=6)

loop1.cluster148 

   0  1 
C         75.48768       67.52078       83.79663
C         74.96928       68.15001       82.54718
O         74.85014       69.36941       82.51051
H         76.47225       67.97444       84.04472
H         74.77815       67.70683       84.62648
H         75.63132       66.42924       83.66304
N         74.68809       67.38738       81.44951
C         74.35171       67.98640       80.17189
C         73.07234       67.40817       79.58091
O         72.54274       66.42856       80.09579
C         75.60386       67.83135       79.28317
C         75.65691       68.79717       78.15447
O         75.52762       69.99224       78.36624
O         75.83897       68.37332       76.90447
H         74.82570       66.36505       81.49460
H         74.16539       69.07348       80.31985
H         75.72483       66.77643       78.94863
H         76.48715       68.09931       79.89947
N         72.48921       68.01532       78.51527
C         71.21565       67.60865       77.93542
C         71.16553       66.14637       77.43830
O         70.22527       65.46654       77.81821
C         70.83032       68.59080       76.79969
C         69.37426       68.47666       76.31777
C         68.38808       69.13315       77.30024
C         66.96183       69.07762       76.74112
N         66.03823       69.86512       77.55664
H         72.94939       68.85672       78.13026
H         70.44618       67.72234       78.73004
H         71.50885       68.42731       75.95035
H         70.98956       69.64465       77.11760
H         69.10469       67.41992       76.10492
H         69.29570       69.04499       75.36451
H         68.68285       70.20053       77.41724
H         68.41450       68.65194       78.30048
H         66.62225       68.01863       76.69896
H         66.95913       69.49171       75.70907
H         66.37267       70.85471       77.62166
H         65.09933       69.86429       77.09631
H         65.95325       69.45544       78.51445
N         72.05263       65.58436       76.54879
C         73.30513       66.17825       76.09413
C         74.44142       65.14299       76.20668
O         74.18957       63.99225       76.54983
C         73.15822       66.65251       74.62175
C         74.15170       67.72472       74.25857
O         73.96502       69.00034       74.63482
O         75.12004       67.45604       73.56835
H         71.82560       64.63938       76.19363
H         73.55707       67.04375       76.71417
H         72.15845       67.07771       74.41762
H         73.26922       65.77682       73.95116
N         75.70771       65.47568       75.84734
C         76.80196       64.53572       75.74018
C         78.04597       65.21121       76.23247
O         78.16900       65.44643       77.42632
H         75.89765       66.42949       75.53552
H         76.92863       64.32314       74.65751
H         76.61914       63.56265       76.24701
N         78.99257       65.61427       75.33504
C         80.18045       66.36075       75.72082
C         81.41535       65.52633       75.40972
O         81.28921       64.53034       74.71109
C         80.22001       67.68285       74.91802
C         78.95872       68.48625       75.06682
O         78.61293       68.98766       76.26627
O         78.24743       68.69235       74.09527
H         78.85459       65.41011       74.33245
H         80.14324       66.56905       76.80895
H         80.35426       67.44091       73.83912
H         81.07185       68.31084       75.23383
N         82.65964       65.84349       75.86799
C         82.96115       66.92910       76.78581
C         83.85068       67.96896       76.16355
O         84.27869       68.86700       76.87378
H         83.44917       65.24818       75.56831
H         83.48510       66.48614       77.66003
H         82.06658       67.44913       77.16854
N         84.17525       67.91984       74.83677
C         85.07275       68.86631       74.20767
C         86.42425       68.74084       74.86980
O         86.87285       69.68477       75.48496
C         84.50403       70.31824       74.18966
C         83.07998       70.37871       73.65685
O         85.27913       71.10631       73.33198
H         83.80274       67.17051       74.23962
H         85.19634       68.57590       73.14059
H         84.47990       70.76522       75.21233
H         86.07718       71.35442       73.84418
H         82.74227       71.43734       73.62053
H         83.03441       69.94917       72.63453
H         82.39985       69.82857       74.32783
N         87.09733       67.55343       74.82217
C         88.46066       67.32491       75.30601
C         89.46908       67.97675       74.36288
O         90.22511       67.25840       73.72827
C         88.69870       67.69993       76.80712
C         87.62929       67.10533       77.76152
C         90.12208       67.30334       77.25062
C         87.49910       65.57981       77.75561
H         86.62245       66.75470       74.37467
H         88.63983       66.22889       75.21837
H         88.63712       68.80176       76.92756
H         86.64336       67.53113       77.48788
H         87.84929       67.43101       78.80313
H         90.29248       67.58295       78.31213
H         90.29490       66.21279       77.13461
H         90.88192       67.84184       76.64399
H         86.65937       65.29101       78.42391
H         87.26217       65.20101       76.74121
H         88.42302       65.09390       78.13109
N         89.52215       69.33245       74.21544
C         90.49163       70.01405       73.37377
C         91.18385       71.08554       74.19632
O         90.81288       71.33315       75.33204
C         89.80819       70.65369       72.13428
C         88.79243       71.75105       72.50938
O         89.22839       69.63216       71.35005
H         88.89065       69.92570       74.74058
H         91.25241       69.29483       73.00427
H         90.58331       71.14910       71.51326
H         88.27352       69.83438       71.16698
H         87.98441       71.28774       73.08164
H         89.24823       72.55506       73.12448
H         88.36809       72.21666       71.59457
N         92.21176       71.77422       73.64529
C         92.87278       72.86250       74.35484
C         92.00358       74.10687       74.46551
O         91.65154       74.69351       73.45205
C         94.21985       73.21754       73.67935
C         95.29228       72.21163       74.12440
O         94.08141       73.25413       72.27708
H         92.54589       71.48626       72.71687
H         93.10455       72.53046       75.38842
H         94.54827       74.21589       74.03997
H         94.98806       73.32863       71.88064
H         95.05044       71.17959       73.79709
H         96.28347       72.51355       73.73046
H         95.36323       72.22670       75.23584
N         91.70448       74.60851       75.70888
C         91.08619       75.91313       75.93876
C         89.68101       75.91449       75.39545
O         89.41581       76.47045       74.33751
C         92.02263       77.05842       75.47658
C         93.42031       76.97735       76.14985
C         93.40150       77.16592       77.68601
C         94.76745       76.88119       78.33520
N         95.75399       77.92657       78.06832
H         91.98980       74.07170       76.53963
H         90.96129       76.06485       77.02772
H         91.56372       78.04339       75.70927
H         92.16593       76.99949       74.37754
H         94.07619       77.74944       75.69941
H         93.86219       75.98416       75.91665
H         92.71474       76.42935       78.14134
H         93.04322       78.18398       77.95829
H         95.14291       75.89411       77.98255
H         94.62868       76.80990       79.43708
H         95.43675       78.82463       78.50095
H         96.66087       77.64889       78.50961
H         95.90575       78.05552       77.04411
N         88.71815       75.27786       76.11983
C         87.37155       75.01895       75.64757
C         86.90478       73.56681       75.76957
O         85.95325       73.27841       75.06378
C         86.32273       75.90099       76.34838
C         86.19041       77.27842       75.69267
C         85.05306       78.03980       76.31140
O         83.91771       77.58875       76.27044
O         85.27699       79.22722       76.90132
H         88.96837       74.98564       77.06543
H         87.32225       75.22860       74.55269
H         86.53735       75.96145       77.43826
H         85.32086       75.43071       76.23077
H         85.95357       77.14592       74.61151
H         87.14024       77.84433       75.77935
N         87.35925       72.60009       76.63505
C         88.35747       72.71076       77.67588
H         89.36684       72.91590       77.26912
H         88.03196       73.45232       78.43681
H         88.43938       71.73138       78.20000
H         86.88593       71.69312       76.58810
Ca        75.77756       70.00457       75.41215
O         77.25125       71.52877       73.16756
H         78.13484       71.65070       72.73791
H         76.61004       71.95904       72.54786
O         77.23791       72.02824       76.90473
H         76.92093       72.70212       77.55680
H         78.22276       72.02477       77.00091
O         74.59475       72.38542       75.07701
H         74.74174       73.03197       75.81106
H         73.63862       72.47033       74.84005

Ca 1.70



