%chk=loop2.cluster7.chk
%nprocshared=48
%mem=10GB
%nosave
#b3lyp/svp scf=(tight,noincore) Test 
#IOP(5/87=12) Density=Current Pop=(MK,readradii) iop(6/33=2) iop(6/42=6)

loop2.cluster7 

   -2  1 
C         50.90589       45.39223       15.76894
C         52.19427       45.13419       15.06397
O         53.19230       45.75940       15.39512
H         50.09146       44.75600       15.36238
H         51.04485       45.14378       16.84165
H         50.62696       46.45843       15.66007
N         52.25630       44.20154       14.07958
C         53.51535       43.78684       13.50415
C         53.77223       44.46907       12.17037
O         52.93554       44.43563       11.27871
C         53.51572       42.27770       13.39534
C         54.81998       41.75006       12.96883
O         55.96885       42.42773       13.16143
O         54.84326       40.63162       12.53381
H         51.40223       43.68169       13.81904
H         54.34077       44.03215       14.20670
H         52.74824       41.95845       12.65818
H         53.28986       41.79852       14.37319
N         54.96931       45.08420       11.98495
C         55.36322       45.86328       10.82585
C         56.40885       45.14992        9.97058
O         56.87237       45.74226        9.00620
C         55.89509       47.20093       11.35865
H         55.65835       44.99999       12.73142
H         54.50014       46.05955       10.15314
H         55.07420       47.74417       11.87504
H         56.70806       47.02545       12.09961
H         56.29280       47.84065       10.54616
N         56.76710       43.85307       10.21004
C         57.62050       43.07943        9.31026
C         56.85904       41.87897        8.72876
O         57.44322       41.14746        7.94059
C         58.84993       42.55299       10.08423
C         59.70202       43.63418       10.68767
O         59.81823       43.73611       12.02166
O         60.33028       44.39534        9.97278
H         56.37970       43.36797       11.02445
H         57.96935       43.70046        8.45800
H         59.49914       41.94641        9.41421
H         58.48087       41.89936       10.89800
N         55.57656       41.57581        9.11326
C         54.89873       40.34695        8.71958
C         55.73020       39.14836        9.11957
O         55.90702       38.24102        8.31985
H         55.07419       42.18330        9.77331
H         54.68898       40.33244        7.62820
H         53.92376       40.30414        9.25601
N         56.34409       39.13737       10.33558
C         57.32840       38.15350       10.74827
C         56.77812       37.26541       11.86623
O         56.93105       36.05424       11.80444
C         58.66284       38.90021       11.05294
C         58.90475       39.48531       12.46354
N         59.00959       38.37949       13.39504
O         57.94184       40.42868       12.90380
H         56.20855       39.94094       10.94519
H         57.55490       37.48726        9.88773
H         58.82109       39.68206       10.28443
H         59.48595       38.17222       10.90185
H         59.73606       37.69338       13.09250
H         59.35702       38.79465       14.26235
N         56.05443       37.81728       12.87997
C         55.36429       37.07903       13.92212
C         55.84160       37.45702       15.31235
O         55.35460       36.86931       16.26686
H         55.95700       38.81991       12.89717
H         55.49019       35.98587       13.78617
H         54.27538       37.30675       13.85292
N         56.81531       38.39966       15.50803
C         57.38115       38.70494       16.81632
C         57.34963       40.19326       17.05684
O         57.50867       40.96537       16.12091
C         58.84036       38.17646       16.99471
C         58.96885       36.72433       16.48874
O         59.78215       39.02709       16.38756
H         57.18082       38.90961       14.70932
H         56.79002       38.18859       17.59935
H         59.06809       38.19994       18.08128
H         60.66358       38.56781       16.37849
H         58.24825       36.07272       17.02287
H         58.76269       36.65156       15.39955
H         59.99429       36.33711       16.66381
N         57.27279       40.66242       18.32192
C         57.44832       42.06732       18.63728
C         58.92284       42.32746       18.79167
O         59.57293       41.69631       19.61387
C         56.60087       42.43261       19.87927
C         55.10604       42.42445       19.45740
C         57.02459       43.78783       20.48163
C         54.13770       42.38505       20.63319
H         57.23627       39.98146       19.09515
H         57.08249       42.70806       17.80797
H         56.77874       41.65598       20.65505
H         54.89787       41.50884       18.86391
H         54.88323       43.30092       18.80481
H         58.07766       43.72971       20.83624
H         56.95783       44.60299       19.73009
H         56.41038       44.04362       21.36681
H         54.19267       43.30795       21.24241
H         53.10204       42.27563       20.24431
H         54.36215       41.50042       21.26652
N         59.50352       43.29252       18.02949
C         60.89756       43.67204       18.15422
C         60.96453       45.03319       18.82692
O         59.92813       45.63074       19.05035
C         61.60572       43.59055       16.78199
C         60.98296       44.47420       15.72538
O         61.56348       45.49789       15.40007
O         59.77393       44.19559       15.16212
H         58.90733       43.84088       17.39489
H         61.42215       42.98078       18.84839
H         61.61312       42.54652       16.40987
H         62.66316       43.89711       16.94635
N         62.13973       45.51095       19.31772
C         62.19927       46.67654       20.20191
C         61.89227       48.00549       19.48895
O         61.06360       48.73601       20.01421
C         63.51576       46.65018       20.99559
C         63.61135       47.69089       22.08193
C         64.52160       48.74421       21.93691
C         62.84226       47.59704       23.26099
C         64.67313       49.69092       22.94921
C         63.00772       48.54404       24.28099
C         63.92414       49.58861       24.12379
H         62.98979       44.94128       19.18767
H         61.42124       46.54255       20.98987
H         64.36924       46.74120       20.30467
H         63.61972       45.65669       21.48988
H         65.11332       48.82752       21.03494
H         62.14097       46.78257       23.40335
H         65.38081       50.49833       22.82348
H         62.43497       48.46488       25.19748
H         64.05837       50.31744       24.91238
N         62.46161       48.40597       18.29651
C         62.04250       49.62606       17.60535
C         60.57265       49.59837       17.18443
O         60.02485       50.63078       16.82650
C         62.92518       49.64556       16.34682
C         64.13993       48.84328       16.78554
C         63.50578       47.70826       17.59112
H         62.26135       50.48030       18.28315
H         62.44474       49.04077       15.54229
H         63.13248       50.66060       15.94241
H         64.80176       48.51121       15.95740
H         64.72718       49.47868       17.48623
H         63.03614       46.96196       16.91672
H         64.27047       47.23975       18.23064
N         59.89725       48.41585       17.15806
C         58.48751       48.27619       16.82252
C         57.64202       48.46800       18.07411
O         56.54030       48.98950       17.97839
C         58.31490       46.89169       16.17858
C         56.88228       46.48501       15.85460
C         56.93571       45.14704       15.18745
O         57.48785       45.03125       14.10583
O         56.45262       44.05817       15.81059
H         60.40731       47.55544       17.39849
H         58.18373       49.02437       16.05724
H         58.72239       46.11611       16.85754
H         58.92260       46.88595       15.24331
H         56.38558       47.22047       15.18575
H         56.30733       46.40467       16.80169
N         58.12844       48.11625       19.29587
C         57.43509       48.37964       20.53264
H         56.44082       47.89058       20.53999
H         58.03874       47.97973       21.37817
H         57.33556       49.47642       20.67110
H         59.04525       47.68153       19.36172
Ca        58.79092       42.36574       14.03499
O         61.01480       41.17780       14.04924
H         61.79845       41.77599       13.99560
H         61.31582       40.28412       13.76323

Ca 1.70



