%chk=loop1.cluster2.chk
%nprocshared=48
%mem=10GB
%nosave
#b3lyp/svp scf=(tight,noincore) Test 
#IOP(5/87=12) Density=Current Pop=(MK,readradii) iop(6/33=2) iop(6/42=6)

loop1.cluster2 

   0  1 
C         47.16710       39.87746       39.81286
C         46.75596       39.65773       38.39400
O         45.64486       40.02330       38.03164
H         48.06299       40.53361       39.83292
H         46.35240       40.37196       40.38461
H         47.40709       38.90318       40.28282
N         47.63269       39.09881       37.51002
C         47.32200       38.95820       36.09459
C         47.57615       37.53252       35.61981
O         48.08223       36.71224       36.37655
C         48.18022       39.99618       35.33637
C         47.61485       40.51629       34.04040
O         46.43964       40.08032       33.55580
O         48.17935       41.43943       33.47899
H         48.57773       38.84484       37.83856
H         46.24911       39.20193       35.93344
H         49.21866       39.61342       35.21297
H         48.23351       40.90674       35.96967
N         47.20939       37.16464       34.36815
C         47.39025       35.83272       33.82588
C         48.86185       35.43510       33.60922
O         49.23094       34.39792       34.13917
C         46.51424       35.68677       32.56063
C         46.67687       34.32240       31.88844
C         45.69469       34.13988       30.72760
C         46.04256       32.86183       29.95011
N         45.39656       32.84689       28.64003
H         46.71155       37.84536       33.78905
H         46.95376       35.10048       34.54499
H         46.74393       36.48429       31.82296
H         45.45353       35.81818       32.87531
H         46.54576       33.49789       32.62073
H         47.71129       34.28779       31.48170
H         45.79580       35.01472       30.05198
H         44.64086       34.09899       31.09217
H         45.75850       31.96193       30.54248
H         47.14048       32.82784       29.77892
H         45.70313       33.68728       28.09569
H         45.70774       31.99452       28.12056
H         44.35645       32.84418       28.73452
N         49.76032       36.09959       32.81169
C         49.57418       37.39424       32.17480
C         50.81349       38.26566       32.40796
O         51.92388       37.75250       32.34128
C         49.41327       37.22144       30.65032
C         48.99534       38.53815       30.08074
O         47.82701       39.06724       30.49763
O         49.72844       39.16035       29.32517
H         50.66788       35.63409       32.64934
H         48.66397       37.89448       32.55176
H         48.60294       36.50647       30.41383
H         50.36022       36.84942       30.19893
N         50.70745       39.61303       32.55627
C         51.88133       40.47297       32.57037
C         51.51712       41.90381       32.88903
O         51.05122       42.16168       33.99030
H         49.77653       40.03516       32.57512
H         52.36352       40.40819       31.56991
H         52.61076       40.12434       33.33240
N         51.71346       42.89293       31.96641
C         51.37358       44.29691       32.21538
C         52.61974       45.15961       32.07827
O         53.60906       44.67593       31.54744
C         50.33450       44.76130       31.17582
C         49.12858       43.89222       31.17500
O         48.17464       44.13197       31.89691
O         49.10461       42.84087       30.35218
H         52.10800       42.64167       31.04710
H         50.96350       44.40341       33.24075
H         50.78590       44.68680       30.16006
H         50.02574       45.80847       31.32199
N         52.67913       46.45795       32.49751
C         51.62873       47.17923       33.20019
C         51.17022       48.38387       32.42057
O         50.43923       49.19691       32.96622
H         53.55525       46.97591       32.31989
H         52.06341       47.53229       34.15950
H         50.73963       46.56699       33.43951
N         51.55382       48.55711       31.12262
C         51.16881       49.69597       30.31954
C         51.77321       50.95693       30.91573
O         51.03994       51.86403       31.26323
C         49.62773       49.75683       30.08245
C         49.03772       48.40596       29.68628
O         49.35223       50.63621       29.03095
H         52.14467       47.85417       30.66087
H         51.62761       49.56053       29.31331
H         49.08598       50.07567       31.00327
H         49.49455       51.53495       29.39385
H         49.54099       48.00820       28.78033
H         49.13792       47.68684       30.51881
H         47.95251       48.52185       29.47567
N         53.13002       51.04615       31.08018
C         53.89643       52.25560       31.41830
C         53.94631       53.17593       30.21542
O         55.02280       53.39731       29.67163
C         53.42204       53.05022       32.67902
C         53.17875       52.16165       33.91564
C         54.41525       54.19588       32.99661
C         54.41905       51.45314       34.45516
H         53.68490       50.19935       30.88141
H         54.94132       51.91824       31.60744
H         52.44560       53.52945       32.45782
H         52.41524       51.39967       33.65693
H         52.75464       52.79118       34.72948
H         55.43035       53.80144       33.21616
H         54.51329       54.89435       32.13786
H         54.06686       54.79093       33.86626
H         54.88523       50.81796       33.67584
H         55.16012       52.18782       34.83229
H         54.11852       50.80431       35.30356
N         52.80911       53.76597       29.75915
C         52.74859       54.70676       28.66807
C         52.10295       55.98773       29.18281
O         51.74330       56.06460       30.35651
C         51.93620       54.08178       27.49170
C         50.43077       54.03290       27.76430
O         52.37671       52.77108       27.23400
H         51.92591       53.57295       30.22596
H         53.77217       54.92289       28.28626
H         52.06082       54.69703       26.57385
H         53.31927       52.82687       26.93283
H         49.89998       53.54901       26.91787
H         50.23972       53.46817       28.68768
H         50.00964       55.05256       27.88151
N         51.87274       57.01957       28.34212
C         51.18466       58.24214       28.74798
C         49.68674       58.14620       28.54061
O         49.24247       57.66641       27.50476
C         51.68938       59.44932       27.93912
C         53.16506       59.74255       28.23086
O         51.43801       59.28283       26.56259
H         52.18075       56.90921       27.36554
H         51.40198       58.47019       29.81960
H         51.12359       60.35400       28.25534
H         52.11173       58.66718       26.18129
H         53.54877       60.48923       27.50786
H         53.25929       60.15834       29.25814
H         53.78390       58.82284       28.16782
N         48.84759       58.67898       29.47071
C         47.39556       58.75666       29.33102
C         46.78044       57.39743       29.14510
O         45.92861       57.19267       28.29350
C         46.96190       59.79606       28.28665
C         47.46656       61.16739       28.73365
C         46.88871       62.31301       27.91335
C         47.40498       63.62667       28.51198
N         46.96776       64.78209       27.73944
H         49.25921       59.07240       30.33320
H         47.00133       59.11051       30.31102
H         45.85083       59.81997       28.26397
H         47.33650       59.54461       27.26990
H         48.57807       61.18764       28.67639
H         47.16168       61.33074       29.79132
H         45.77588       62.29366       27.96862
H         47.19769       62.20882       26.85131
H         48.51713       63.60884       28.53568
H         47.03347       63.71851       29.55893
H         45.92403       64.81597       27.69310
H         47.32039       65.64544       28.21239
H         47.37244       64.73229       26.77672
N         47.19298       56.41764       29.97393
C         46.67486       55.06597       29.97899
C         47.77093       54.09791       30.34911
O         47.97268       53.19675       29.55758
C         45.44348       54.89576       30.89412
C         44.13168       54.98730       30.10151
C         42.95228       54.78709       31.00406
O         42.44072       55.83175       31.68059
O         42.44201       53.68313       31.11519
H         47.98999       56.64387       30.57491
H         46.38651       54.76936       28.94163
H         45.48212       55.60361       31.74839
H         45.44552       53.86223       31.31086
H         44.13747       54.17013       29.34169
H         44.02354       55.94739       29.55947
N         48.54140       54.15561       31.48232
C         48.47900       55.14428       32.54483
H         47.67119       55.88692       32.45313
H         48.31728       54.63079       33.51101
H         49.45880       55.67376       32.59270
H         49.26303       53.43439       31.59260
Ca        47.60933       41.25689       30.58214
O         45.22785       43.47123       30.41012
H         44.29434       43.57377       30.72424
H         45.33471       44.16638       29.71352
O         44.63740       40.41184       31.11902
H         44.39823       40.64453       32.05081
H         44.09884       39.60599       30.91888
O         45.71496       42.89003       33.39375
H         45.67611       42.68659       34.36220
H         45.45630       43.84183       33.32634
O         46.06790       40.92795       28.40291
H         46.55046       40.22572       27.89903
H         45.63931       41.49637       27.71755

Ca 1.70



