%chk=loop1.cluster11.chk
%nprocshared=48
%mem=10GB
%nosave
#b3lyp/svp scf=(tight,noincore) Test 
#IOP(5/87=12) Density=Current Pop=(MK,readradii) iop(6/33=2) iop(6/42=6)

loop1.cluster11 

   0  1 
C         48.12620       40.11026       39.69362
C         47.74195       39.81678       38.27983
O         46.64239       40.17582       37.87792
H         49.01855       40.77203       39.69773
H         47.29959       40.63447       40.22139
H         48.35749       39.16438       40.22044
N         48.63320       39.21133       37.43834
C         48.35667       39.05878       36.01703
C         48.69587       37.65214       35.50654
O         49.32521       36.86826       36.20325
C         49.14527       40.18148       35.30383
C         48.65482       40.63244       33.96011
O         47.59148       40.07123       33.37014
O         49.17340       41.60530       33.44257
H         49.57519       38.98254       37.79084
H         47.27175       39.23469       35.84341
H         50.22586       39.92055       35.27208
H         49.03611       41.09949       35.92082
N         48.25371       37.27926       34.27963
C         48.43967       35.98843       33.63261
C         49.91240       35.58389       33.43887
O         50.25073       34.51603       33.93021
C         47.60909       36.03552       32.32259
C         47.54164       34.78089       31.45527
C         46.62452       35.09948       30.25107
C         46.62847       34.02534       29.16118
N         45.89943       32.82295       29.55779
H         47.66188       37.94227       33.78752
H         47.96714       35.20890       34.27356
H         47.98167       36.86623       31.68939
H         46.56192       36.28421       32.61316
H         47.14832       33.92169       32.03910
H         48.56580       34.54436       31.09684
H         47.00322       36.02834       29.77143
H         45.58104       35.29685       30.59033
H         47.67980       33.78142       28.89379
H         46.13586       34.44706       28.25626
H         44.88262       33.05013       29.65733
H         46.00655       32.10564       28.80464
H         46.26700       32.43479       30.45403
N         50.86007       36.28669       32.73247
C         50.69367       37.58506       32.08794
C         51.86490       38.50114       32.46442
O         52.99179       38.03014       32.54868
C         50.72057       37.38176       30.55938
C         50.20457       38.56920       29.78231
O         49.59365       39.59578       30.40411
O         50.27673       38.56844       28.56515
H         51.78142       35.83296       32.61906
H         49.72815       38.03830       32.37254
H         50.07907       36.52106       30.27757
H         51.76203       37.14355       30.24604
N         51.68406       39.83976       32.61326
C         52.78467       40.73338       32.94105
C         52.33471       42.17011       33.01966
O         52.42065       42.77340       34.08045
H         50.75157       40.22438       32.46738
H         53.57321       40.67143       32.15904
H         53.22078       40.42864       33.91579
N         51.85098       42.78926       31.90916
C         51.48308       44.20193       31.90047
C         52.76183       45.02931       31.76459
O         53.68260       44.54221       31.12387
C         50.60838       44.51066       30.66472
C         49.50257       43.51171       30.48598
O         48.56842       43.32396       31.42689
O         49.49180       42.80079       29.49394
H         51.77413       42.24538       31.03649
H         50.87702       44.40581       32.80872
H         51.23967       44.45335       29.75152
H         50.19670       45.53549       30.73552
N         52.89370       46.31612       32.19927
C         51.91430       47.05781       32.97065
C         51.34694       48.22056       32.20250
O         50.59389       48.99181       32.77713
H         53.76612       46.81365       31.95064
H         52.43665       47.45402       33.86791
H         51.06748       46.44396       33.31085
N         51.66296       48.41235       30.89000
C         51.19507       49.54270       30.12243
C         51.77433       50.80037       30.74169
O         51.03360       51.65622       31.18125
C         49.65717       49.50714       29.88291
C         49.15243       48.09857       29.56827
O         49.38033       50.28325       28.75278
H         52.28508       47.75667       30.40185
H         51.64104       49.45611       29.10580
H         49.07274       49.85033       30.77484
H         49.00167       51.11920       29.08004
H         49.80374       47.61439       28.81047
H         49.13269       47.49263       30.49513
H         48.11416       48.13780       29.17304
N         53.13573       50.90887       30.85074
C         53.93155       52.06105       31.29740
C         53.89550       53.14459       30.23106
O         54.91960       53.40693       29.61555
C         53.63912       52.62531       32.72548
C         53.28219       51.55487       33.78473
C         54.85511       53.46695       33.18847
C         54.40881       50.60779       34.18840
H         53.68257       50.09384       30.53418
H         54.97773       51.67702       31.32612
H         52.74306       53.28080       32.67201
H         52.42611       50.96295       33.40832
H         52.93484       52.06880       34.70940
H         55.78218       52.84756       33.17671
H         55.03067       54.32876       32.51136
H         54.72019       53.84790       34.22151
H         54.85750       50.11644       33.30318
H         55.19110       51.15734       34.75454
H         53.99199       49.82865       34.86215
N         52.71927       53.75626       29.90988
C         52.55842       54.64843       28.77636
C         51.76419       55.87951       29.18952
O         51.15143       55.88602       30.24928
C         51.84753       53.87277       27.62560
C         50.40549       53.48227       27.96735
O         52.55378       52.68960       27.34545
H         51.88063       53.52858       30.43619
H         53.55806       54.96391       28.40541
H         51.79290       54.49806       26.70597
H         53.36446       52.94442       26.83523
H         49.96906       52.86213       27.15505
H         50.38168       52.88830       28.89788
H         49.76735       54.38121       28.09632
N         51.72842       56.96576       28.37682
C         50.94544       58.15891       28.69593
C         49.45451       57.91051       28.69290
O         48.93011       57.38387       27.71633
C         51.18184       59.31363       27.69639
C         52.55656       59.96146       27.84196
O         50.91776       58.92938       26.36685
H         52.30992       56.94632       27.52809
H         51.24449       58.53629       29.70087
H         50.46133       60.11962       27.96016
H         51.67798       58.38070       26.04242
H         52.58331       60.88093       27.22013
H         52.71560       60.25905       28.90172
H         53.36618       59.27316       27.52966
N         48.68745       58.39593       29.71480
C         47.23114       58.43540       29.69018
C         46.69580       57.04897       29.45858
O         46.03783       56.77790       28.46930
C         46.71059       59.50346       28.70442
C         47.26402       60.88457       29.10404
C         46.70767       62.02674       28.25090
C         47.28874       63.36650       28.73533
N         46.83220       64.48400       27.90973
H         49.15957       58.82451       30.52837
H         46.86945       58.76288       30.69115
H         45.60010       59.52892       28.77870
H         46.99308       59.26122       27.65862
H         48.37041       60.87567       29.00478
H         47.00756       61.08412       30.16868
H         45.59932       62.05658       28.35008
H         46.97057       61.85755       27.18529
H         48.40171       63.33321       28.71227
H         46.97006       63.53169       29.78899
H         45.79693       64.44462       27.76985
H         47.07351       65.38127       28.39026
H         47.31663       64.45932       26.98309
N         46.97967       56.11936       30.39809
C         46.61206       54.72291       30.30081
C         47.78923       53.80842       30.54257
O         47.95732       52.94605       29.70557
C         45.45169       54.39317       31.24829
C         44.11553       54.66449       30.54065
C         42.96781       54.52860       31.48760
O         42.26238       55.49462       31.72737
O         42.70796       53.34633       32.07728
H         47.44814       56.44534       31.24140
H         46.25986       54.47593       29.27053
H         45.55576       54.98413       32.18204
H         45.45329       53.31103       31.51026
H         43.98462       53.93751       29.70200
H         44.11673       55.68591       30.10825
N         48.61624       53.81585       31.63400
C         48.66621       54.81116       32.68200
H         49.10877       55.75185       32.29257
H         47.67725       54.96339       33.15103
H         49.37909       54.47517       33.46607
H         49.29319       53.05352       31.71460
Ca        47.35342       41.46459       31.07653
O         45.52561       43.28524       30.27742
H         44.61082       43.34170       29.90790
H         45.66909       44.13862       30.75764
O         45.03821       39.82146       30.71620
H         44.07058       39.93720       30.88783
H         45.08781       39.19070       29.95488
O         45.86283       42.07566       33.29030
H         45.99484       42.93398       33.76192
H         44.88903       41.90813       33.29561
O         47.12494       40.76169       28.39743
H         46.73642       41.41603       27.76491
H         47.65697       40.14437       27.83684

Ca 1.70



