%chk=loop2.cluster16.chk
%nprocshared=48
%mem=10GB
%nosave
#b3lyp/svp scf=(tight,noincore) Test 
#IOP(5/87=12) Density=Current Pop=(MK,readradii) iop(6/33=2) iop(6/42=6)

loop2.cluster16 

   -2  1 
C         59.16681       52.44250       16.45625
C         60.18092       52.20746       15.36747
O         61.28993       52.71393       15.44758
H         58.21631       51.90435       16.24134
H         59.56050       52.03805       17.41324
H         58.93830       53.51981       16.56795
N         59.86902       51.36928       14.34693
C         60.82790       50.88171       13.36217
C         61.13551       51.89144       12.24825
O         60.21467       52.47676       11.69802
C         60.20655       49.62034       12.73371
C         61.15586       48.79001       11.95017
O         62.47706       48.93748       12.11502
O         60.72980       47.86975       11.27447
H         58.93357       50.93399       14.36576
H         61.74969       50.56163       13.89762
H         59.34875       49.92099       12.09899
H         59.83291       48.94531       13.53286
N         62.41705       52.05505       11.80506
C         62.82481       52.89959       10.68906
C         63.56744       52.09354        9.59773
O         63.99884       52.69270        8.62258
C         63.75833       53.98696       11.24558
H         63.15134       51.52855       12.25839
H         61.94356       53.40022       10.23568
H         64.68933       53.53499       11.65592
H         64.03477       54.71787       10.45680
H         63.25313       54.53843       12.06843
N         63.80528       50.74704        9.73387
C         64.64767       49.95470        8.83155
C         64.04069       48.61803        8.35877
O         64.58827       48.04521        7.42586
C         66.00452       49.66977        9.52739
C         65.87728       49.32632       10.99533
O         65.11462       48.31164       11.42075
O         66.42855       50.02954       11.82575
H         63.47376       50.28002       10.57010
H         64.86519       50.53452        7.90710
H         66.60878       50.60003        9.48872
H         66.56675       48.88503        8.97571
N         62.93930       48.05052        8.93507
C         62.37841       46.77482        8.48022
C         63.17005       45.52838        8.88563
O         62.86970       44.45531        8.38254
H         62.45897       48.54781        9.68291
H         62.27036       46.81698        7.37455
H         61.35912       46.64538        8.89971
N         64.17716       45.59090        9.80146
C         65.05716       44.46095       10.12431
C         64.52150       43.50240       11.20169
O         65.20403       42.53483       11.51129
C         66.45230       45.01477       10.49717
C         66.50170       45.82958       11.75423
N         67.62742       46.49056       12.07379
O         65.52290       45.93362       12.47012
H         64.39751       46.50361       10.19837
H         65.23115       43.87915        9.19258
H         66.77521       45.68351        9.66949
H         67.19246       44.19368       10.59313
H         68.45955       46.45105       11.47189
H         67.64203       47.07531       12.90520
N         63.30555       43.68775       11.79564
C         62.74614       42.75753       12.77767
C         63.30475       42.85154       14.19893
O         62.84848       42.09920       15.04741
H         62.71044       44.46074       11.47421
H         62.82356       41.71976       12.38759
H         61.66372       42.98760       12.88336
N         64.24354       43.77735       14.54500
C         64.70331       44.00863       15.91824
C         64.48080       45.44791       16.32889
O         64.25410       46.30609       15.49383
C         66.23432       43.75964       16.04779
C         66.58631       42.28380       16.13728
O         66.91815       44.34611       14.96738
H         64.61606       44.37864       13.81647
H         64.14681       43.37498       16.64417
H         66.63103       44.17718       17.00620
H         67.16463       45.26828       15.24007
H         67.69285       42.17342       16.13176
H         66.21051       41.88095       17.10407
H         66.14833       41.71087       15.29792
N         64.68463       45.78462       17.62738
C         64.81878       47.15095       18.09271
C         66.30581       47.41063       18.22429
O         67.01844       46.62677       18.83903
C         63.96470       47.36653       19.38043
C         62.58536       47.93952       18.95413
C         64.65286       48.30544       20.39341
C         61.54076       47.95661       20.06476
H         64.90712       45.03094       18.29653
H         64.46912       47.87811       17.33311
H         63.84017       46.38784       19.89492
H         62.16090       47.34072       18.11862
H         62.73728       48.97908       18.57988
H         64.05824       48.40734       21.32123
H         65.62656       47.87516       20.71046
H         64.82901       49.30890       19.95207
H         61.28388       46.91414       20.34476
H         61.88924       48.50740       20.95880
H         60.62513       48.46337       19.69214
N         66.83436       48.52091       17.63953
C         68.25126       48.82651       17.60559
C         68.58952       49.89382       18.60179
O         67.70198       50.46026       19.23053
C         68.66151       49.31168       16.20026
C         68.34023       48.29599       15.16621
O         67.06313       47.91496       14.98197
O         69.23020       47.81854       14.48182
H         66.19361       49.18429       17.20035
H         68.83811       47.92227       17.88167
H         69.74897       49.53514       16.16592
H         68.11561       50.24392       15.94159
N         69.89206       50.16843       18.85225
C         70.32215       51.08964       19.88273
C         70.01956       52.55212       19.50796
O         69.29693       53.18011       20.25761
C         71.76732       50.75063       20.27378
C         72.28940       51.64179       21.35731
C         73.46147       52.37761       21.14189
C         71.61896       51.74410       22.58974
C         73.95627       53.21237       22.14282
C         72.11239       52.58794       23.58429
C         73.28046       53.32178       23.36159
H         70.60692       49.60841       18.35516
H         69.72752       50.85899       20.79592
H         72.43174       50.76345       19.39167
H         71.78190       49.70008       20.64181
H         73.99134       52.29974       20.20004
H         70.71514       51.17850       22.77936
H         74.86319       53.77475       21.97101
H         71.58856       52.67150       24.52728
H         73.66306       53.97345       24.13372
N         70.48132       53.15325       18.35936
C         69.97998       54.44810       17.89474
C         68.45927       54.50566       17.79628
O         67.87896       55.55349       18.05684
C         70.54983       54.54495       16.46962
C         71.82182       53.72869       16.53087
C         71.47550       52.58567       17.48467
H         70.37354       55.24692       18.55910
H         69.88310       54.00496       15.76253
H         70.67878       55.58918       16.10474
H         72.21592       53.39558       15.54570
H         72.58280       54.37350       17.02257
H         71.06261       51.69058       16.97905
H         72.41608       52.35550       18.02201
N         67.74901       53.41361       17.39147
C         66.29308       53.40716       17.25475
C         65.60104       53.64068       18.58841
O         64.48758       54.14298       18.61350
C         65.88162       52.07350       16.63576
C         64.43398       51.97060       16.18462
C         64.36747       50.85236       15.19830
O         64.31272       51.13556       14.02682
O         64.53275       49.56454       15.52395
H         68.27247       52.55009       17.16461
H         66.01963       54.21902       16.54341
H         66.11580       51.25639       17.33198
H         66.51341       51.97267       15.72203
H         64.19333       52.90219       15.62379
H         63.70052       51.86722       17.01199
N         66.23194       53.30420       19.74420
C         65.71107       53.61671       21.05270
H         64.70925       53.16692       21.19361
H         66.40391       53.21102       21.82317
H         65.66681       54.71948       21.18041
H         67.12572       52.81887       19.69287
Ca        64.64042       48.33952       13.63397
O         61.97348       48.21598       15.20107
H         62.19899       48.84611       15.92696
H         61.03711       47.95652       15.38231
O         62.48360       46.24652       13.16785
H         61.60888       46.12031       12.72840
H         62.30470       45.97582       14.09904

Ca 1.70



