%chk=loop3.cluster99.chk
%nprocshared=48
%mem=10GB
%nosave
#b3lyp/svp scf=(tight,noincore) Test 
#IOP(5/87=12) Density=Current Pop=(MK,readradii) iop(6/33=2) iop(6/42=6)

loop3.cluster99 

   0  1 
C         65.34934       28.15918       18.93193
C         66.37011       29.07345       18.32082
O         66.12617       30.26602       18.23144
H         64.41252       28.18545       18.33698
H         65.71746       27.11155       18.95676
H         65.13956       28.48279       19.97159
N         67.54993       28.56199       17.86822
C         68.60884       29.35501       17.25125
C         68.15758       29.97974       15.93332
O         68.79412       30.91000       15.44884
C         69.20611       30.35007       18.27742
C         70.65525       30.70100       18.02569
O         71.30369       31.49284       18.90031
O         71.26907       30.21937       17.08543
H         67.71451       27.54940       17.95816
H         69.40983       28.62795       16.99838
H         69.20319       29.86127       19.27497
H         68.58253       31.26840       18.34384
N         67.09191       29.45364       15.25700
C         66.64644       29.92745       13.95207
C         65.98730       31.29962       14.02795
O         65.60864       31.82659       12.99114
C         65.68167       28.89911       13.29957
C         66.31861       27.49281       13.23447
C         65.49117       26.49865       12.41886
C         66.21413       25.14260       12.35498
N         65.41773       24.15219       11.63432
H         66.61093       28.64227       15.66458
H         67.53317       29.99759       13.28263
H         65.46474       29.24155       12.26321
H         64.71969       28.84358       13.85680
H         66.42473       27.06873       14.25542
H         67.32860       27.57533       12.78118
H         65.35863       26.88656       11.38569
H         64.49225       26.37322       12.89042
H         66.41064       24.76727       13.38450
H         67.19398       25.27328       11.84166
H         65.21178       24.48743       10.66566
H         65.95600       23.25726       11.57834
H         64.52381       23.97636       12.14792
N         65.81424       31.93458       15.22685
C         65.20392       33.24129       15.35553
C         66.17690       34.20842       16.01534
O         66.67450       33.93088       17.09953
C         63.93872       33.12917       16.21999
C         63.18913       34.42999       16.26750
O         62.21486       34.53322       16.98892
O         63.58622       35.46347       15.49014
H         66.10824       31.48014       16.09508
H         64.89691       33.62888       14.35842
H         64.22832       32.82313       17.24964
H         63.25405       32.36038       15.80279
N         66.44033       35.40196       15.42274
C         67.23035       36.44905       16.03732
C         66.37094       37.37726       16.85729
O         65.38492       37.88924       16.34668
H         65.98794       35.61260       14.52631
H         67.65494       37.07113       15.22334
H         68.08402       36.03414       16.61557
N         66.71558       37.67308       18.13874
C         65.98344       38.63054       18.96183
C         66.88611       39.76516       19.44773
O         66.43159       40.89767       19.49172
C         65.31433       37.90846       20.13743
C         64.38896       36.81801       19.66860
N         63.35545       37.10366       18.84546
O         64.56844       35.66795       20.03941
H         67.52899       37.18972       18.54349
H         65.16002       39.10811       18.38557
H         64.68949       38.63888       20.68462
H         66.08622       37.48144       20.81636
H         63.18262       38.06551       18.52052
H         62.72742       36.35504       18.53458
N         68.19126       39.53698       19.79161
C         69.10211       40.57692       20.24820
C         68.72792       41.08069       21.61940
O         68.55718       40.27729       22.52477
H         68.58233       38.59333       19.70137
H         69.16117       41.39837       19.49903
H         70.11558       40.13304       20.33785
N         68.57451       42.41707       21.83988
C         68.13172       42.98342       23.11209
C         66.77794       42.44935       23.52975
O         66.47758       42.42356       24.71298
C         69.18101       42.88298       24.24509
C         70.47340       43.59512       23.92224
C         71.70190       42.94068       24.10623
C         70.46718       44.92639       23.46076
C         72.90095       43.59879       23.81551
C         71.66352       45.56936       23.14599
C         72.88482       44.90620       23.31785
O         74.04479       45.51601       23.00329
H         68.72277       43.06784       21.05307
H         67.94598       44.06150       22.93293
H         69.36597       41.81696       24.50416
H         68.76250       43.37915       25.14655
H         71.73158       41.92728       24.48699
H         69.54159       45.46740       23.32588
H         73.84318       43.08919       23.96906
H         71.63919       46.58384       22.76818
H         74.06074       46.40008       22.60910
N         65.89209       42.05486       22.57656
C         64.49970       41.70909       22.79472
C         63.73957       42.99328       23.01158
O         63.11061       43.47347       22.07824
C         64.22178       40.59180       23.85494
C         65.20579       39.40619       23.67147
C         62.74365       40.17286       23.73113
C         64.81755       38.11056       24.38840
H         66.19542       42.07657       21.59595
H         64.15781       41.30757       21.81066
H         64.36763       40.96451       24.89151
H         66.20909       39.72238       24.03073
H         65.30914       39.16620       22.60927
H         62.53472       39.76395       22.72023
H         62.47267       39.41906       24.49768
H         62.07923       41.04257       23.90283
H         65.60548       37.34673       24.21736
H         64.69363       38.26967       25.47891
H         63.87731       37.70212       23.95916
N         63.81667       43.65632       24.19505
C         63.19707       44.94895       24.41551
C         61.68675       44.83149       24.35420
O         61.03217       45.75284       23.89569
C         63.60883       45.50796       25.78565
O         65.00535       45.44743       25.93527
H         64.34518       43.23440       24.96700
H         63.57303       45.65530       23.63885
H         63.10414       44.91154       26.58169
H         63.28769       46.56758       25.87157
H         65.18393       45.13566       26.86243
N         61.07927       43.69198       24.81375
C         59.63674       43.47394       24.79678
C         59.08124       43.49485       23.37700
O         57.89348       43.74969       23.20350
C         58.95204       44.48880       25.72586
H         61.66127       42.93450       25.19263
H         59.43590       42.46860       25.22910
H         58.98166       45.51684       25.30966
H         57.89196       44.20566       25.89283
H         59.46606       44.49433       26.71218
N         59.88457       43.21847       22.30518
C         59.47976       43.42428       20.92263
C         59.33792       42.14072       20.14569
O         60.16258       41.24219       20.26624
C         60.50457       44.29098       20.19142
H         60.84594       42.89909       22.47692
H         58.51369       43.97581       20.88435
H         60.66779       45.24538       20.73019
H         61.47138       43.75221       20.09316
H         60.13514       44.51645       19.16593
N         58.31755       42.04156       19.25309
C         58.06818       40.91552       18.37261
C         57.90036       39.64787       19.18299
O         58.47923       38.62183       18.85319
C         59.13092       40.85121       17.24952
C         58.58425       40.15567       15.99484
C         59.56480       40.25207       14.87152
O         60.63110       39.43905       14.85027
O         59.39306       41.05626       13.96800
H         57.66027       42.83382       19.18045
H         57.09505       41.14732       17.88688
H         60.08238       40.40361       17.61170
H         59.35190       41.89717       16.93611
H         57.66053       40.69384       15.68852
H         58.32433       39.09097       16.16989
N         57.13235       39.68265       20.30871
C         56.97858       38.55547       21.20144
H         55.91184       38.25617       21.22157
H         57.59938       37.68590       20.90238
H         57.28490       38.86161       22.22524
H         56.66027       40.56258       20.56640
Ca        62.79800       37.56342       15.25138
O         64.78975       40.35225       14.52237
H         64.60331       41.31741       14.40310
H         65.67844       40.32007       14.95635
O         60.68929       37.25317       16.83492
H         60.82102       37.38189       17.80496
H         60.65482       36.27450       16.70804
O         64.69234       37.22866       13.19583
H         64.80599       36.45002       12.59515
H         65.59031       37.64178       13.25274
O         62.71576       40.26794       16.56460
H         62.56393       40.35266       17.53816
H         62.26417       41.05615       16.17019
O         62.67389       39.73766       12.61348
H         63.14004       40.41390       12.06324
H         61.87289       40.21571       12.93719
O         61.19003       37.05732       12.94798
H         61.23331       36.22536       12.41432
H         60.22599       37.27472       13.00388

Ca 1.70



