%chk=loop2.cluster72.chk
%nprocshared=48
%mem=10GB
%nosave
#b3lyp/svp scf=(tight,noincore) Test 
#IOP(5/87=12) Density=Current Pop=(MK,readradii) iop(6/33=2) iop(6/42=6)

loop2.cluster72 

   -2  1 
C         67.84195      108.41609       19.33849
C         67.38970      109.81815       19.64032
O         68.11085      110.57504       20.27244
H         68.85551      108.21181       19.73913
H         67.12153      107.70651       19.79982
H         67.84374      108.24572       18.23927
N         66.17793      110.22192       19.18218
C         65.58623      111.53629       19.43349
C         64.09632      111.37655       19.67833
O         63.59454      111.90575       20.65932
C         65.80106      112.46098       18.22631
C         65.11300      113.79039       18.42881
O         65.42587      114.56504       19.48622
O         64.24613      114.15419       17.65004
H         65.66343      109.55159       18.59774
H         66.06983      112.03214       20.30923
H         65.40609      111.97661       17.30870
H         66.88978      112.63838       18.09294
N         63.32402      110.65100       18.80713
C         61.89269      110.43153       18.94915
C         61.50358      109.79605       20.28296
O         60.34981      109.86618       20.67083
C         61.13126      111.71363       18.61360
H         63.77366      110.21177       17.99259
H         61.57968      109.70476       18.16936
H         61.43891      112.04207       17.59492
H         60.04019      111.50924       18.58301
H         61.34355      112.52810       19.33324
N         62.43726      109.11063       21.00410
C         62.17955      108.46377       22.28106
C         61.74095      109.45057       23.32206
O         60.91597      109.09241       24.14757
C         61.22780      107.24601       22.18268
C         61.68783      106.24730       21.16282
O         60.89584      105.78799       20.35602
O         62.97146      105.84113       21.14383
H         63.39844      109.04251       20.65154
H         63.15862      108.07348       22.63797
H         60.17946      107.55387       21.96290
H         61.22560      106.73829       23.17278
N         62.31496      110.68596       23.41698
C         62.01659      111.61127       24.49364
C         62.28915      110.94943       25.82118
O         62.98845      109.94507       25.86321
H         63.01140      110.96647       22.71913
H         60.94450      111.90499       24.44353
H         62.62310      112.54021       24.39149
N         61.67693      111.40349       26.94382
C         61.70938      110.68262       28.20834
C         63.14070      110.39883       28.66289
O         63.48270      109.25789       28.94127
C         60.81439      109.41829       28.12371
C         59.37081      109.77747       27.81735
N         58.94690      109.92238       26.54233
O         58.57899      109.93252       28.73340
H         61.09105      112.25083       26.88516
H         61.24730      111.33308       28.98166
H         60.83012      108.90483       29.10944
H         61.19179      108.68552       27.37595
H         59.59436      109.79142       25.77109
H         57.96774      110.15624       26.32491
N         64.02360      111.43028       28.77816
C         65.36345      111.27645       29.32799
C         66.43495      110.95069       28.31016
O         67.59777      110.92843       28.69817
H         63.69906      112.38333       28.56387
H         65.37195      110.52182       30.14635
H         65.64155      112.24469       29.79427
N         66.14386      110.64332       27.01035
C         67.17103      110.22156       26.06280
C         67.11639      108.73264       25.85042
O         66.16887      108.07333       26.26822
C         67.08061      110.93148       24.68223
C         65.71761      110.76732       23.99467
O         67.38019      112.29457       24.81561
H         65.16174      110.59970       26.71832
H         68.18273      110.41732       26.48542
H         67.84437      110.45126       24.02368
H         67.83128      112.57051       23.97323
H         64.94851      111.36140       24.52562
H         65.77721      111.13567       22.94858
H         65.40025      109.70301       23.96270
N         68.15509      108.12751       25.22251
C         68.20005      106.70017       24.97343
C         67.17822      106.29816       23.91759
O         66.59685      107.14938       23.25662
C         69.64411      106.25462       24.55273
C         70.05879      106.86596       23.18013
C         70.65104      106.59046       25.67460
C         71.47565      106.51259       22.72942
H         68.96531      108.71181       24.96770
H         67.95032      106.17829       25.92560
H         69.65296      105.14732       24.44867
H         69.98957      107.97197       23.19285
H         69.35909      106.49128       22.40301
H         71.64779      106.15637       25.45496
H         70.77427      107.68466       25.80859
H         70.31340      106.15200       26.63777
H         71.61748      105.41301       22.69459
H         71.64646      106.93071       21.71433
H         72.22939      106.96857       23.40508
N         66.97295      104.97976       23.68265
C         66.17364      104.44249       22.59440
C         65.13670      103.52062       23.19985
O         65.31757      102.31077       23.18263
C         67.19683      103.74984       21.66934
C         66.67784      103.02447       20.46762
O         65.85551      103.62935       19.59699
O         67.13958      101.92917       20.18831
H         67.47771      104.30073       24.27322
H         65.65751      105.22947       21.99600
H         67.82126      103.04235       22.25774
H         67.86511      104.54996       21.28456
N         64.03799      104.04407       23.81970
C         63.07854      103.20680       24.53239
C         62.45503      104.00072       25.68798
O         61.27931      104.33931       25.61372
C         62.04431      102.63960       23.53718
C         61.20667      101.56187       24.18316
C         59.86360      101.79697       24.51299
C         61.77284      100.30299       24.45374
C         59.10136      100.78958       25.11338
C         61.00416       99.29456       25.04116
C         59.66935       99.53842       25.37282
H         63.89240      105.06750       23.80281
H         63.60160      102.33914       24.97623
H         62.55557      102.17732       22.66385
H         61.41884      103.47039       23.14433
H         59.41429      102.76213       24.31896
H         62.80365      100.10171       24.19304
H         58.06920      100.97881       25.37585
H         61.44283       98.32386       25.23678
H         59.07457       98.75775       25.82897
N         63.19676      104.37947       26.78253
C         64.59694      104.04161       26.97049
C         64.77687      102.59118       27.41441
O         64.22689      102.19968       28.43601
C         65.07656      104.98550       28.08522
C         63.92197      105.96561       28.30186
C         62.67886      105.22938       27.82697
H         65.15965      104.28645       26.04979
H         65.27120      104.42957       29.02581
H         66.00843      105.52173       27.79565
H         63.86170      106.37963       29.33320
H         64.07366      106.80074       27.58906
H         62.27364      104.57825       28.63163
H         61.90541      105.95763       27.48977
N         65.54401      101.74364       26.67816
C         65.78227      100.34772       27.03549
C         67.26645      100.05885       26.91109
O         67.85134      100.35445       25.87775
C         64.90508       99.47627       26.12624
C         64.97219       97.96342       26.39575
C         66.21241       97.32054       25.84538
O         66.46539       97.40387       24.65359
O         67.02134       96.60673       26.65043
H         65.93607      102.09055       25.79234
H         65.44957      100.12972       28.07638
H         65.09906       99.68809       25.05299
H         63.86205       99.78726       26.35406
H         64.11067       97.49152       25.87837
H         64.86826       97.76205       27.48542
N         67.94711       99.48829       27.94354
C         69.37824       99.27622       27.88678
H         69.89235      100.25466       27.77379
H         69.72616       98.80509       28.83055
H         69.64701       98.61516       27.03520
H         67.44009       99.20150       28.79342
Ca        65.72521      102.65724       17.57121
O         64.44262      101.29949       15.33450
H         63.72999      100.62293       15.21869
H         64.42898      101.83344       14.50169
O         65.17180       99.93426       18.60006
H         64.62312       99.28704       18.09015
H         65.62343       99.39123       19.29358
O         63.01480      102.42021       17.58140
H         62.42705      103.16236       17.86624
H         62.75375      101.64850       18.14307
O         67.12494      100.33878       15.89857
H         66.52123       99.70283       15.44070
H         67.76767      100.60920       15.19661
O         68.62973      102.74610       16.99570
H         68.72281      102.53493       16.03384
H         69.08915      103.61598       17.09711

Ca 1.70



