%chk=loop1.cluster36.chk
%nprocshared=48
%mem=10GB
%nosave
#b3lyp/svp scf=(tight,noincore) Test 
#IOP(5/87=12) Density=Current Pop=(MK,readradii) iop(6/33=2) iop(6/42=6)

loop1.cluster36 

   0  1 
C         79.28867       82.19932       85.75402
C         80.67231       82.76660       85.74734
O         80.84720       83.87722       85.29780
H         78.57687       82.90044       85.26406
H         79.28115       81.23809       85.20122
H         78.96447       82.03667       86.80210
N         81.71517       82.04954       86.24373
C         83.09350       82.54922       86.28023
C         83.82678       82.45301       84.94585
O         85.01622       82.74238       84.92179
C         83.90949       81.91634       87.42561
C         84.05381       80.43657       87.36253
O         85.14672       79.93837       87.14410
O         83.00266       79.64898       87.66167
H         81.50664       81.12039       86.62295
H         83.11577       83.58550       86.60376
H         83.44713       82.16462       88.40417
H         84.92242       82.37932       87.41911
N         83.20259       82.06823       83.79256
C         83.95214       81.78370       82.57459
C         83.80683       82.89802       81.55859
O         82.68439       83.17862       81.16517
C         83.44480       80.48409       81.92618
C         83.39670       79.26464       82.85407
C         84.73248       78.94951       83.53709
C         84.70285       77.60177       84.28201
N         83.65834       77.54540       85.30189
H         82.18587       81.91293       83.78191
H         85.01057       81.60993       82.82772
H         84.09216       80.25804       81.05127
H         82.40860       80.63836       81.54924
H         83.08785       78.40033       82.22930
H         82.62069       79.43264       83.63142
H         84.98035       79.76233       84.25571
H         85.54100       78.90117       82.77743
H         85.69353       77.46739       84.76919
H         84.54881       76.76968       83.56332
H         83.80929       76.72029       85.92524
H         83.71487       78.40024       85.87212
H         82.70619       77.48789       84.87615
N         84.86991       83.58762       81.04928
C         86.25524       83.43297       81.47116
C         86.98134       84.74106       81.17578
O         87.31861       84.96445       80.02093
C         86.89713       82.21682       80.74717
C         88.30685       81.89150       81.17124
O         88.87314       80.92689       80.68100
O         88.94677       82.63698       82.09265
H         84.66545       84.30665       80.34835
H         86.30024       83.24570       82.55196
H         86.88799       82.38939       79.64775
H         86.28673       81.31338       80.94338
N         87.25288       85.68827       82.12899
C         86.85896       85.64257       83.53856
C         86.48361       87.03446       84.03013
O         87.28474       87.93518       83.82983
H         87.80185       86.50781       81.82548
H         87.76239       85.36858       84.11789
H         86.09949       84.88599       83.77335
N         85.35076       87.32855       84.73966
C         84.28345       86.38989       85.08895
C         83.36254       86.98043       86.17929
O         83.56657       88.09918       86.63032
C         83.49174       86.00945       83.81026
C         82.92577       87.21445       83.11183
O         82.41230       87.08878       82.01679
O         83.02305       88.44223       83.65754
H         85.26146       88.30348       85.06323
H         84.73109       85.47814       85.54163
H         82.68378       85.27812       84.02689
H         84.16249       85.51516       83.08527
N         82.35151       86.23152       86.68421
C         81.47978       86.65525       87.76047
C         80.39224       87.59449       87.30510
O         79.63678       88.05138       88.15318
H         82.21531       85.30880       86.31649
H         82.08740       87.08540       88.58412
H         80.95857       85.75956       88.16983
N         80.18983       87.87493       85.98328
C         79.10446       88.73248       85.51864
C         78.06700       87.90320       84.81805
O         78.41510       87.02660       84.03680
C         79.61177       89.90177       84.62259
C         78.49159       90.89913       84.30404
O         80.12616       89.48184       83.39166
H         80.78418       87.41458       85.27772
H         78.61591       89.22111       86.38867
H         80.40023       90.44669       85.18139
H         80.66801       88.67591       83.53398
H         77.72849       90.44333       83.63405
H         77.99607       91.25597       85.22997
H         78.92715       91.77435       83.77621
N         76.75190       88.12562       85.05573
C         75.69301       87.41528       84.36728
C         74.77934       88.41557       83.70060
O         74.13431       89.20303       84.38819
C         74.96657       86.43555       85.33008
C         73.73324       85.74863       84.69103
C         74.53734       87.08676       86.65716
C         74.00584       85.04378       83.36183
H         76.49022       88.86441       85.73035
H         76.12694       86.76978       83.57082
H         75.71040       85.64904       85.59206
H         72.92417       86.49362       84.52589
H         73.36018       84.98804       85.40998
H         74.09358       86.31753       87.32342
H         75.40933       87.51153       87.19618
H         73.78550       87.88413       86.49222
H         74.84056       84.32021       83.46076
H         73.08947       84.50062       83.04829
H         74.24339       85.77580       82.56416
N         74.69425       88.46167       82.34242
C         73.80065       89.37449       81.63913
C         73.17947       88.77130       80.36156
O         72.30068       89.39068       79.78779
C         74.58789       90.66780       81.31478
C         73.67963       91.82610       80.88452
O         75.54547       90.39407       80.32256
H         75.37377       87.89537       81.81448
H         72.96362       89.63082       82.32838
H         75.10372       90.99012       82.24997
H         76.15265       91.17768       80.27811
H         72.95045       92.04747       81.69335
H         74.29056       92.73489       80.70778
H         73.13351       91.60553       79.94871
N         73.63000       87.59131       79.83161
C         73.23448       87.06106       78.53220
C         73.77333       87.91758       77.39212
O         74.19359       89.04912       77.59531
C         71.72569       86.72465       78.39360
C         71.25563       85.86924       79.58394
O         71.50215       86.06301       77.16377
H         74.34474       87.04538       80.31567
H         73.76938       86.09129       78.44629
H         71.12113       87.65401       78.37964
H         71.02503       85.20308       77.29726
H         71.33500       86.44487       80.52857
H         70.19227       85.58337       79.44201
H         71.86956       84.94588       79.66434
N         73.87201       87.35304       76.16213
C         74.40978       87.99199       74.98229
C         75.76279       87.45823       74.48565
O         76.35441       88.21534       73.72640
C         73.38908       87.85177       73.81929
C         72.42484       89.02244       73.62817
C         71.53050       89.32170       74.82903
C         70.52801       90.42649       74.46306
N         69.58368       90.65867       75.55284
H         73.53056       86.40806       76.06260
H         74.60867       89.07005       75.18249
H         72.82294       86.90367       73.93114
H         73.91959       87.77052       72.84524
H         71.77772       88.75878       72.76130
H         73.00991       89.92885       73.35930
H         72.14957       89.65937       75.68851
H         70.97945       88.40192       75.11566
H         69.95555       90.13336       73.55334
H         71.08060       91.36576       74.23410
H         69.00051       91.49669       75.32744
H         68.95582       89.82757       75.65127
H         70.09319       90.82527       76.45024
N         76.35622       86.23584       74.71552
C         75.99544       85.07964       75.54379
C         74.62505       84.48697       75.30679
O         73.97839       84.07170       76.26200
C         76.38756       85.27821       77.01988
C         77.83828       85.74230       77.10933
C         78.32938       85.81290       78.50710
O         79.39204       85.05094       78.82795
O         77.82178       86.57654       79.31413
H         77.24685       86.10055       74.20899
H         76.67311       84.26393       75.20047
H         76.28628       84.30568       77.55532
H         75.75294       86.02928       77.51262
H         77.95970       86.74323       76.64137
H         78.48965       85.02184       76.56687
N         74.09703       84.45093       74.05379
C         72.76890       83.93603       73.78220
H         72.10931       84.76805       73.46194
H         72.82279       83.19072       72.96433
H         72.30639       83.45290       74.66919
H         74.63565       84.84647       73.26943
Ca        81.13592       85.55399       80.13762
O         81.78869       87.22502       77.95705
H         81.28304       88.07258       78.02143
H         81.81774       87.01580       76.99116
O         82.34102       83.77713       78.21930
H         82.15757       82.86843       78.56671
H         82.92052       83.63318       77.43091
O         84.04588       86.40229       79.37533
H         84.58259       86.71519       80.14627
H         84.69892       85.96138       78.77474
O         80.04333       85.06810       82.43602
H         80.22935       84.77065       83.34765
H         79.95037       86.04716       82.52019
O         80.20699       88.13541       80.46527
H         79.89245       88.37518       81.36372
H         79.38838       88.19737       79.92309

Ca 1.70



