%chk=loop2.cluster128.chk
%nprocshared=48
%mem=10GB
%nosave
#b3lyp/svp scf=(tight,noincore) Test 
#IOP(5/87=12) Density=Current Pop=(MK,readradii) iop(6/33=2) iop(6/42=6)

loop2.cluster128 

   -2  1 
C         81.91079       83.58756       38.51792
C         83.12418       83.58676       39.39695
O         83.50311       84.64620       39.87794
H         81.05618       84.06371       39.04571
H         82.13793       84.16631       37.59938
H         81.61775       82.55619       38.23347
N         83.78333       82.42054       39.67109
C         84.97742       82.37808       40.50951
C         84.60521       82.02845       41.94998
O         85.36047       81.34255       42.62695
C         86.00825       81.40916       39.87898
C         87.35870       81.37425       40.55172
O         88.18547       80.55067       40.19452
O         87.67465       82.24886       41.52732
H         83.43481       81.54022       39.26254
H         85.43303       83.39276       40.54227
H         86.17970       81.68686       38.81569
H         85.56830       80.38809       39.90092
N         83.47473       82.54761       42.51238
C         83.22296       82.49621       43.94839
C         81.72784       82.65682       44.25872
O         80.96623       82.96319       43.35098
C         84.06516       83.62893       44.56468
H         82.84689       83.11252       41.92783
H         83.52102       81.49442       44.33292
H         85.14204       83.45270       44.35325
H         83.77980       84.59284       44.09032
H         83.95786       83.75666       45.65240
N         81.18786       82.39587       45.49025
C         81.93334       81.91962       46.65279
C         81.88881       80.41075       46.71044
O         81.18704       79.80689       45.91830
C         81.39712       82.60518       47.92681
C         81.55803       84.09866       47.78569
O         82.66127       84.59014       47.92565
O         80.59828       84.85043       47.22332
H         80.16408       82.44564       45.58045
H         83.00283       82.14536       46.54970
H         81.96024       82.26382       48.82195
H         80.33222       82.33294       48.07424
N         82.72029       79.73522       47.55802
C         82.93108       78.29070       47.50320
C         83.56226       77.91922       46.17374
O         84.39569       78.68138       45.70345
H         83.30880       80.27799       48.20718
H         82.00383       77.72801       47.72215
H         83.66813       78.03092       48.29227
N         83.26787       76.77399       45.48848
C         82.56753       75.61952       46.05838
C         81.04455       75.69535       45.86920
O         80.35353       74.73066       46.15258
C         83.27281       74.34256       45.49782
C         83.19047       73.10665       46.37347
N         82.07141       72.35414       46.44900
O         84.18122       72.76321       47.00416
H         83.77400       76.63107       44.59810
H         82.76978       75.58608       47.14922
H         84.36190       74.58659       45.50173
H         83.01412       74.13332       44.43703
H         81.24220       72.57317       45.88680
H         82.05660       71.51732       47.05163
N         80.44755       76.83899       45.42812
C         79.00641       76.98394       45.28924
C         78.28704       77.31905       46.58738
O         77.10191       77.03755       46.68556
H         81.02941       77.63762       45.16670
H         78.56420       76.09913       44.78535
H         78.81359       77.83890       44.60656
N         78.90596       78.03989       47.57061
C         78.21232       78.58074       48.73790
C         77.69812       79.94532       48.32495
O         78.35287       80.94316       48.57731
C         79.19501       78.63096       49.94228
C         78.51316       78.97861       51.27431
O         79.80676       77.37536       50.08011
H         79.87526       78.33714       47.42173
H         77.35638       77.92834       49.02673
H         79.97394       79.40038       49.71923
H         80.71997       77.53971       50.43486
H         79.27759       78.98279       52.08290
H         78.02882       79.97626       51.25034
H         77.75311       78.20932       51.53306
N         76.58762       80.02445       47.54221
C         76.12749       81.24015       46.88106
C         74.74205       81.61554       47.39639
O         73.90921       80.74854       47.61960
C         76.17526       81.05715       45.33354
C         77.66155       81.02599       44.87235
C         75.39648       79.81525       44.87040
C         77.89531       80.61003       43.42088
H         76.05376       79.16240       47.37309
H         76.80441       82.09400       47.10123
H         75.69360       81.94408       44.86190
H         78.25376       80.32483       45.49868
H         78.06940       82.04830       45.01581
H         75.26068       79.84269       43.76982
H         75.94408       78.88701       45.12993
H         74.38757       79.78634       45.32554
H         77.31063       81.23948       42.72155
H         78.97765       80.70228       43.18300
H         77.61878       79.54278       43.28505
N         74.47979       82.91477       47.69833
C         73.26243       83.37633       48.36635
C         72.03115       83.37931       47.47368
O         72.12857       83.05465       46.30970
C         73.49371       84.76077       49.02831
C         74.07903       85.81039       48.13027
O         75.40661       85.82153       47.90676
O         73.39477       86.74183       47.74176
H         75.22570       83.58391       47.51424
H         73.03803       82.67843       49.19904
H         74.19870       84.64249       49.87879
H         72.54809       85.13803       49.46401
N         70.81347       83.71818       47.98810
C         69.53642       83.63999       47.28158
C         69.55369       84.26173       45.87316
O         69.44264       83.53357       44.90349
C         68.99429       82.19179       47.35375
C         67.47824       82.15702       47.41544
C         66.69291       82.19662       46.25268
C         66.84022       82.09817       48.67252
C         65.29450       82.16033       46.34826
C         65.44703       82.07397       48.76151
C         64.67394       82.09936       47.60056
H         70.76430       83.94971       48.99243
H         68.81659       84.21879       47.90033
H         69.33578       81.78479       48.33125
H         69.42191       81.50160       46.59557
H         67.15833       82.24272       45.27838
H         67.42435       82.08352       49.58517
H         64.68981       82.17885       45.45143
H         64.96776       82.03498       49.73237
H         63.59384       82.07321       47.67249
N         69.66297       85.61842       45.70121
C         69.64429       86.25424       44.38370
C         70.95463       86.11630       43.62922
O         70.97867       86.40943       42.43632
C         69.31431       87.71258       44.72798
C         69.95030       87.88991       46.10192
C         69.65936       86.55939       46.78809
H         68.83057       85.83840       43.75074
H         69.60940       88.46628       43.96475
H         68.21429       87.78077       44.88012
H         71.04903       87.95980       45.94929
H         69.60695       88.77566       46.67831
H         70.43899       86.35150       47.55254
H         68.64649       86.54315       47.24944
N         72.09245       85.69671       44.24029
C         73.33591       85.46031       43.52117
C         73.16883       84.23959       42.62668
O         73.39880       84.32133       41.43104
C         74.46864       85.30754       44.54448
C         75.84438       85.12774       43.90718
C         76.86805       85.28374       44.97368
O         76.85540       84.44300       46.01301
O         77.69029       86.18544       44.92330
H         72.07688       85.54216       45.26228
H         73.59880       86.35440       42.90886
H         74.26716       84.47648       45.25679
H         74.48719       86.25866       45.12536
H         76.01449       85.90091       43.13051
H         75.93717       84.11893       43.44684
N         72.71621       83.07758       43.16659
C         72.42690       81.88993       42.40130
H         71.60755       82.09670       41.68161
H         73.33573       81.53291       41.88009
H         72.07735       81.09315       43.09728
H         72.53122       83.04566       44.15987
Ca        78.43038       84.61755       47.52538
O         77.21304       83.62391       49.93023
H         77.23427       82.93505       49.22474
H         76.82040       83.15606       50.70660
O         76.33868       88.43372       47.15731
H         76.94492       88.25522       46.39706
H         75.50518       87.97215       46.90273
O         79.99993       85.67263       50.07642
H         80.37416       85.82422       50.97920
H         80.67114       86.07160       49.46884
O         79.23504       87.94388       47.71258
H         78.71029       88.68552       48.10584
H         80.11273       88.35050       47.50537

Ca 1.70



