%chk=loop3.cluster213.chk
%nprocshared=48
%mem=10GB
%nosave
#b3lyp/svp scf=(tight,noincore) Test 
#IOP(5/87=12) Density=Current Pop=(MK,readradii) iop(6/33=2) iop(6/42=6)

loop3.cluster213 

   0  1 
C         40.68501       77.55892      -25.87655
C         40.19564       76.57797      -26.89931
O         41.00707       75.82074      -27.41351
H         41.51268       78.15726      -26.31761
H         39.88300       78.25545      -25.55769
H         41.07313       77.01288      -24.99241
N         38.87450       76.52683      -27.25141
C         38.39474       75.66660      -28.33039
C         37.52862       74.52286      -27.82976
O         37.04976       74.54383      -26.70266
C         37.68707       76.56046      -29.38212
C         37.26624       75.87214      -30.65296
O         36.16239       76.09021      -31.12759
O         38.13835       75.09990      -31.32857
H         38.19952       77.14119      -26.76856
H         39.26430       75.18166      -28.82131
H         38.41043       77.34545      -29.68177
H         36.80615       77.07087      -28.92756
N         37.32667       73.45370      -28.65767
C         36.51508       72.28139      -28.37546
C         35.03586       72.57506      -28.23678
O         34.28089       71.65327      -27.97272
C         37.05406       71.42163      -27.21799
C         38.52753       71.00484      -27.38076
C         38.93649       70.37075      -28.73004
C         38.08323       69.16623      -29.16722
N         38.70768       68.47271      -30.29582
H         37.79713       73.46179      -29.57041
H         36.56536       71.63600      -29.27251
H         36.44489       70.49066      -27.17370
H         36.93434       71.93927      -26.24193
H         38.75024       70.28024      -26.56703
H         39.17596       71.89336      -27.22466
H         39.98923       70.03780      -28.60194
H         38.92643       71.13153      -29.54093
H         37.06462       69.49673      -29.46576
H         37.97834       68.45485      -28.32293
H         38.14170       67.62717      -30.53650
H         38.76109       69.09848      -31.13240
H         39.67020       68.16023      -30.03014
N         34.53337       73.81235      -28.52106
C         33.09820       74.05070      -28.51646
C         32.77557       75.38059      -29.17245
O         33.51735       76.33658      -29.00989
C         32.55313       74.05144      -27.06537
C         31.05116       73.98655      -26.97024
O         30.45260       74.14464      -25.77520
O         30.37403       73.72114      -27.94782
H         35.16234       74.56023      -28.82857
H         32.62975       73.24272      -29.11978
H         32.91905       74.97021      -26.55725
H         32.92238       73.17896      -26.49165
N         31.61592       75.50966      -29.87497
C         31.13696       76.78908      -30.35750
C         29.78349       77.07236      -29.76238
O         29.10726       76.16295      -29.30877
H         31.01976       74.68775      -30.02221
H         31.04505       76.77795      -31.45980
H         31.83094       77.61016      -30.07395
N         29.37605       78.35981      -29.64562
C         28.16183       78.72197      -28.93106
C         27.44285       79.89238      -29.57000
O         26.35799       80.19625      -29.10442
C         28.57275       79.07761      -27.48861
C         29.02896       77.83637      -26.76436
N         30.34593       77.56749      -26.60817
O         28.19599       77.04122      -26.35733
H         30.04347       79.09669      -29.90290
H         27.43693       77.87731      -28.91182
H         27.74684       79.52940      -26.90013
H         29.39412       79.82747      -27.54303
H         31.06294       78.19866      -26.99241
H         30.64515       76.69995      -26.14208
N         27.96213       80.60881      -30.61741
C         27.34303       81.82616      -31.12010
C         27.33114       82.92643      -30.07449
O         28.14607       82.90474      -29.16070
H         28.83165       80.31268      -31.07441
H         26.30433       81.59491      -31.43999
H         27.90482       82.19698      -32.00209
N         26.30932       83.83876      -30.07874
C         26.02466       84.80207      -29.00373
C         25.65211       84.14080      -27.68800
O         25.37473       84.86206      -26.74158
C         27.17913       85.79198      -28.76551
C         27.52069       86.51779      -30.02797
C         28.75460       86.28947      -30.64758
C         26.60462       87.41371      -30.60363
C         29.06647       86.93454      -31.84321
C         26.92133       88.06492      -31.79637
C         28.15232       87.82046      -32.42418
O         28.46193       88.42764      -33.58596
H         25.64934       83.81379      -30.86956
H         25.12969       85.38556      -29.31438
H         28.05752       85.24041      -28.37160
H         26.89890       86.54324      -27.99199
H         29.46435       85.59693      -30.21167
H         25.64939       87.60594      -30.12830
H         30.01655       86.73870      -32.32124
H         26.20957       88.75316      -32.23444
H         27.84261       89.02850      -34.02335
N         25.64108       82.77872      -27.55766
C         25.31387       82.02121      -26.36513
C         23.80308       81.85240      -26.28430
O         23.34191       80.72207      -26.23428
C         26.06642       82.52734      -25.08869
C         27.60372       82.56841      -25.35847
C         25.77236       81.61313      -23.88686
C         28.43241       83.18010      -24.22690
H         25.86594       82.21926      -28.36149
H         25.69820       80.98564      -26.52062
H         25.70242       83.54051      -24.83041
H         27.81432       83.17775      -26.26130
H         27.97957       81.54015      -25.55463
H         26.21927       80.60738      -24.04272
H         26.18478       82.04722      -22.95319
H         24.68295       81.49929      -23.73475
H         28.35562       82.58747      -23.29350
H         29.50364       83.19580      -24.52512
H         28.10736       84.22403      -24.03605
N         22.96601       82.92652      -26.31631
C         21.52758       82.83366      -26.10671
C         21.27403       82.26240      -24.72714
O         20.43367       81.38395      -24.59233
C         20.91129       84.24023      -26.24450
O         19.54892       84.22219      -25.92145
H         23.35986       83.85931      -26.44564
H         21.04565       82.18425      -26.87498
H         21.03317       84.57234      -27.30227
H         21.44476       84.95000      -25.57303
H         19.23817       85.16145      -26.01277
N         22.04100       82.66744      -23.66631
C         21.90212       82.16323      -22.30028
C         22.16288       80.65714      -22.11844
O         22.05269       80.18322      -20.99586
C         20.52035       82.55407      -21.76029
H         22.76301       83.38593      -23.83032
H         22.65435       82.68890      -21.67115
H         20.42306       82.26517      -20.69388
H         20.39313       83.65584      -21.83612
H         19.70427       82.06615      -22.33097
N         22.49174       79.84141      -23.16340
C         22.53361       78.38647      -23.05249
C         23.87179       77.85279      -22.58727
O         24.89201       78.49982      -22.78217
C         22.18223       77.76669      -24.40890
H         22.57083       80.24271      -24.09470
H         21.74578       78.05391      -22.34165
H         22.18864       76.65837      -24.35586
H         21.16627       78.10185      -24.71060
H         22.90599       78.09456      -25.18713
N         23.92028       76.63718      -21.95631
C         25.14736       76.00722      -21.47454
C         25.85290       76.84745      -20.41898
O         27.01284       76.58865      -20.12435
C         26.06469       75.60743      -22.64580
C         25.35655       74.62657      -23.59585
C         26.29882       74.23928      -24.68636
O         26.04035       74.58441      -25.95590
O         27.34165       73.66332      -24.41960
H         23.03674       76.13142      -21.79870
H         24.88696       75.05046      -20.97001
H         26.96781       75.09878      -22.23791
H         26.40248       76.50129      -23.21275
H         24.45742       75.11005      -24.03625
H         25.03335       73.71142      -23.05146
N         25.18600       77.83360      -19.75340
C         25.81881       78.62897      -18.72784
H         26.69413       79.16302      -19.15193
H         25.09430       79.37874      -18.34449
H         26.14069       77.98168      -17.88436
H         24.19513       78.01959      -19.96010
Ca        27.74742       74.36015      -27.38734
O         25.96903       75.58261      -29.00167
H         25.60866       76.18719      -28.30503
H         25.20355       75.01743      -29.27075
O         28.47081       71.74196      -27.05195
H         28.89392       71.01480      -27.57140
H         28.10282       71.30884      -26.24253

Ca 1.70



