%chk=loop1.cluster78.chk
%nprocshared=48
%mem=10GB
%nosave
#b3lyp/svp scf=(tight,noincore) Test 
#IOP(5/87=12) Density=Current Pop=(MK,readradii) iop(6/33=2) iop(6/42=6)

loop1.cluster78 

   0  1 
C         42.00128        1.34540       38.15314
C         41.34446        0.02024       38.35337
O         41.24899       -0.74124       37.40393
H         43.03009        1.19009       37.76863
H         41.41117        1.93102       37.41836
H         42.05510        1.91190       39.10567
N         40.80742       -0.30571       39.56113
C         40.13687       -1.57708       39.79660
C         38.63477       -1.42517       39.65846
O         37.88384       -1.94098       40.47460
C         40.68840       -2.28163       41.06596
C         40.70109       -1.48210       42.34940
O         41.32005       -1.99073       43.43210
O         40.19332       -0.37490       42.41805
H         40.82014        0.40309       40.30459
H         40.36550       -2.27571       38.96611
H         41.74695       -2.54056       40.84812
H         40.14466       -3.23449       41.24574
N         38.14021       -0.79501       38.54425
C         36.75695       -0.88426       38.09970
C         36.75799       -1.18047       36.59592
O         37.16038       -0.29086       35.85786
C         36.00311        0.44891       38.29075
C         35.95028        0.89658       39.74936
C         34.81796        1.90675       39.97006
C         34.81986        2.38626       41.42477
N         33.60431        3.13294       41.74104
H         38.79579       -0.30860       37.92058
H         36.22439       -1.65351       38.68861
H         34.97044        0.27899       37.91518
H         36.45453        1.27526       37.69266
H         36.93965        1.31683       40.03822
H         35.72867        0.02152       40.39629
H         33.85975        1.38079       39.75578
H         34.89821        2.77970       39.28447
H         35.71652        3.02373       41.59492
H         34.87705        1.50817       42.10453
H         33.52816        3.98650       41.14298
H         32.76765        2.52078       41.59643
H         33.63642        3.41510       42.74728
N         36.36941       -2.35912       36.01305
C         36.03319       -3.62851       36.66496
C         34.71965       -3.57726       37.43607
O         34.19807       -2.48906       37.61916
C         37.24214       -4.12030       37.48274
C         38.49277       -3.90925       36.63618
O         38.55783       -4.72872       35.50973
O         39.68228       -4.05937       37.32912
H         36.42840       -2.39617       34.98219
H         35.88228       -4.34813       35.83021
H         37.12978       -5.16311       37.80837
H         37.36188       -3.51804       38.39706
N         34.05933       -4.69525       37.87714
C         34.42646       -6.08190       37.61150
C         34.50983       -6.88289       38.90832
O         33.60975       -6.72635       39.72615
H         33.16848       -4.54483       38.37786
H         35.30938       -6.14699       36.96670
H         33.59458       -6.52461       37.02461
N         35.51252       -7.76511       39.21780
C         36.61152       -8.13371       38.32458
C         37.88882       -7.41809       38.70024
O         38.73993       -7.28500       37.83251
C         36.78583       -9.66512       38.20723
C         37.20075      -10.37469       39.47409
O         37.39912       -9.70049       40.62303
O         37.37102      -11.58269       39.45481
H         35.48917       -8.20177       40.14907
H         36.37949       -7.82221       37.29525
H         37.56021       -9.87366       37.43523
H         35.82857      -10.10740       37.85250
N         38.07398       -6.84690       39.92830
C         39.20319       -5.98398       40.23685
C         40.53010       -6.67941       40.03027
O         40.79724       -7.67683       40.68547
H         37.36493       -6.98291       40.66534
H         39.12326       -5.62300       41.28284
H         39.13277       -5.09379       39.57937
N         41.40520       -6.19982       39.10061
C         42.62001       -6.89626       38.68133
C         43.41963       -6.00027       37.73153
O         42.88284       -5.54433       36.73345
C         42.24984       -8.25293       38.00067
C         43.49490       -8.97229       37.48460
O         41.36354       -8.11238       36.92061
H         41.16587       -5.32354       38.62174
H         43.24760       -7.10326       39.57548
H         41.75640       -8.91302       38.74470
H         40.90248       -7.24071       36.96891
H         44.16077       -9.24394       38.32789
H         43.19117       -9.89232       36.94281
H         44.05146       -8.33262       36.76641
N         44.71131       -5.67988       38.02038
C         45.48370       -4.69067       37.27308
C         46.87260       -5.22182       36.94617
O         47.81400       -4.99216       37.69269
C         45.49255       -3.34487       38.05913
C         46.46686       -2.28473       37.45282
C         45.75512       -3.53328       39.56539
C         45.77112       -1.00623       36.99814
H         45.13735       -6.08473       38.86731
H         45.00093       -4.44510       36.29822
H         44.45283       -2.95659       38.01824
H         47.02621       -2.67705       36.57723
H         47.22728       -2.00529       38.21337
H         45.71015       -2.55545       40.08499
H         44.96519       -4.16687       40.02387
H         46.74117       -4.00410       39.74758
H         46.53209       -0.26146       36.68523
H         45.13924       -1.21202       36.11806
H         45.15430       -0.57647       37.81455
N         47.06310       -5.91830       35.79665
C         48.36559       -6.39136       35.33432
C         48.59534       -6.01259       33.85676
O         49.52608       -6.52114       33.24768
C         48.43907       -7.92043       35.59493
C         47.31362       -8.71130       34.92029
O         48.36148       -8.16305       36.97820
H         46.23493       -6.14297       35.22331
H         49.20238       -5.94752       35.92022
H         49.40831       -8.31748       35.21508
H         49.19857       -7.81719       37.38602
H         47.44013       -9.79219       35.14019
H         46.32197       -8.40923       35.31948
H         47.32748       -8.56489       33.82252
N         47.76388       -5.12153       33.22692
C         47.74416       -4.81293       31.79304
C         47.31393       -6.02808       30.98705
O         47.33342       -7.13803       31.49906
C         49.05822       -4.20122       31.21242
C         49.60191       -3.06562       32.08758
O         48.78823       -3.72110       29.91152
H         47.04656       -4.64166       33.78560
H         46.94354       -4.04956       31.67014
H         49.84260       -4.98749       31.14412
H         49.46804       -3.05056       29.64244
H         48.84766       -2.25851       32.18484
H         49.88075       -3.45179       33.08822
H         50.52198       -2.64506       31.62313
N         46.90807       -5.87376       29.69461
C         46.69069       -6.99231       28.80136
C         45.26587       -7.26415       28.30086
O         45.15127       -8.30451       27.66360
C         47.60536       -6.79950       27.56808
C         49.10047       -6.88099       27.90164
C         49.92866       -6.70416       26.62243
C         51.42961       -6.82871       26.90401
N         52.21419       -6.57572       25.69322
H         46.87614       -4.93682       29.29595
H         46.98466       -7.93855       29.30767
H         47.37519       -5.81366       27.09891
H         47.39900       -7.58995       26.81640
H         49.31589       -7.87620       28.34676
H         49.38146       -6.09375       28.63508
H         49.71904       -5.69304       26.20781
H         49.63450       -7.46675       25.86796
H         51.66426       -7.84636       27.29341
H         51.70577       -6.08406       27.68092
H         52.18613       -7.41020       25.06336
H         51.84755       -5.74032       25.18107
H         53.20612       -6.38559       25.96295
N         44.12238       -6.51234       28.44710
C         43.83862       -5.23153       29.09842
C         44.66104       -4.05822       28.61318
O         45.21644       -3.32657       29.42181
C         43.62570       -5.35712       30.62462
C         43.03423       -4.04328       31.19261
C         42.39852       -4.23023       32.52678
O         41.21303       -3.97508       32.67005
O         43.12630       -4.66067       33.57280
H         43.29416       -6.91922       27.98075
H         42.81317       -4.97225       28.74444
H         44.54116       -5.65108       31.17726
H         42.86879       -6.16277       30.76464
H         42.24850       -3.65914       30.50352
H         43.81535       -3.26465       31.29112
N         44.73941       -3.78268       27.28573
C         45.42716       -2.61029       26.78449
H         46.35540       -2.92199       26.26726
H         44.76479       -2.07057       26.07644
H         45.69024       -1.89539       27.59488
H         44.29407       -4.42018       26.60817
Ca        40.79644       -4.40965       35.40220
O         40.82868       -6.79923       34.21012
H         40.78304       -7.18484       33.30402
H         41.45595       -7.38870       34.69019
O         42.90211       -2.62797       35.74874
H         43.00451       -2.06632       36.55322
H         43.48170       -2.20597       35.06893
O         40.12937       -1.69860       34.65727
H         39.26209       -1.28931       34.89380
H         40.24086       -1.50379       33.69388

Ca 1.70



