%chk=loop3.cluster68.chk
%nprocshared=48
%mem=10GB
%nosave
#b3lyp/svp scf=(tight,noincore) Test 
#IOP(5/87=12) Density=Current Pop=(MK,readradii) iop(6/33=2) iop(6/42=6)

loop3.cluster68 

   0  1 
C        103.86473       75.51751       83.54752
C        102.58560       74.77177       83.35160
O        101.86512       75.08155       82.41222
H        104.54594       75.28976       82.70049
H        103.66134       76.60829       83.57077
H        104.35580       75.22121       84.49640
N        102.25119       73.73942       84.18156
C        101.05048       72.94260       83.99622
C        100.18972       72.94824       85.25047
O        100.72043       72.75492       86.33868
C        101.43643       71.50252       83.59536
C        100.27185       70.80182       82.96160
O        100.37880       69.64493       82.59611
O         99.17683       71.52926       82.65784
H        102.90433       73.46961       84.93293
H        100.46532       73.37549       83.16348
H        101.84552       70.94840       84.46744
H        102.21081       71.53253       82.79819
N         98.84171       73.16670       85.16844
C         97.96828       73.30299       86.33245
C         96.84414       72.26648       86.41393
O         96.33795       72.05681       87.50343
C         97.33532       74.69334       86.29556
C         98.35930       75.83367       86.28896
C         99.13153       75.95326       87.61119
C         99.90316       77.27949       87.69932
N        100.89740       77.43287       86.63586
H         98.43038       73.30184       84.23678
H         98.56050       73.18139       87.26700
H         96.63925       74.83088       87.14989
H         96.74399       74.76484       85.35549
H         97.78640       76.76922       86.12900
H         99.06545       75.71130       85.43816
H         99.82192       75.09226       87.74636
H         98.40408       75.94776       88.45235
H        100.41024       77.32903       88.68775
H         99.17645       78.12074       87.64657
H        101.39306       78.34299       86.77221
H        101.59269       76.65323       86.67213
H        100.43826       77.46207       85.69791
N         96.44245       71.55183       85.32047
C         95.57110       70.37113       85.44417
C         96.43238       69.11301       85.38395
O         95.89748       68.03020       85.60183
C         94.39718       70.32683       84.40859
C         94.84812       70.27301       82.97989
O         94.04771       70.15067       82.06730
O         96.15040       70.40899       82.73627
H         96.88599       71.75112       84.42287
H         95.09228       70.36194       86.44483
H         93.74470       71.21883       84.52849
H         93.78562       69.42091       84.60892
N         97.78291       69.16801       85.13587
C         98.64124       67.99883       85.18676
C         98.34564       66.95489       84.12852
O         98.88247       65.86531       84.22861
H         98.24510       70.07142       84.95899
H         98.51971       67.54241       86.19284
H         99.70426       68.30372       85.07884
N         97.46622       67.20037       83.11656
C         96.99979       66.16715       82.20012
C         98.03485       65.77667       81.13496
O         97.95946       66.25578       80.01139
C         95.68861       66.65260       81.53143
C         94.95465       65.55862       80.79988
N         93.99612       65.87228       79.90361
O         95.20571       64.38569       81.02726
H         97.02262       68.12292       83.06397
H         96.72182       65.28147       82.80946
H         95.91013       67.48358       80.83114
H         94.99089       67.06053       82.29493
H         93.77964       66.85696       79.69335
H         93.49173       65.12547       79.40469
N         98.96445       64.81573       81.38453
C         99.86159       64.31510       80.35078
C         99.20696       63.27421       79.45859
O         99.90835       62.66180       78.66474
H         99.00026       64.37266       82.31157
H        100.70764       63.80847       80.85931
H        100.29228       65.14810       79.75033
N         97.86761       63.01871       79.53079
C         97.19834       61.98312       78.76570
C         96.37153       62.65605       77.68024
O         95.51793       63.48106       77.97807
C         96.35711       61.13870       79.73614
C         95.74647       59.92365       79.09570
C         94.40627       59.94003       78.68469
C         96.50500       58.75080       78.94069
C         93.83158       58.80013       78.11674
C         95.92440       57.60713       78.38476
C         94.58480       57.63016       77.96828
O         94.01344       56.53434       77.42912
H         97.28105       63.58517       80.14675
H         97.95023       61.31476       78.29070
H         95.56690       61.78033       80.18243
H         96.99193       60.79534       80.58405
H         93.81147       60.83740       78.80024
H         97.53745       58.71836       79.26846
H         92.79797       58.82442       77.79725
H         96.51261       56.70342       78.28254
H         94.50485       55.70842       77.31470
N         96.66731       62.39819       76.37852
C         96.14680       63.11970       75.22529
C         94.69021       62.82759       74.88425
O         93.77471       63.23074       75.58693
C         96.51920       64.63362       75.22279
C         95.91659       65.32667       73.96840
C         98.05738       64.75241       75.23818
C         96.36759       66.77337       73.77187
H         97.39430       61.69377       76.18322
H         96.72713       62.71982       74.36872
H         96.11046       65.14857       76.11972
H         94.80957       65.33437       74.07189
H         96.17139       64.75170       73.05232
H         98.47936       64.26477       76.14057
H         98.48671       64.26574       74.33434
H         98.38611       65.80959       75.25945
H         95.77552       67.24065       72.95843
H         96.22178       67.36095       74.70043
H         97.43542       66.80375       73.46753
N         94.45344       62.17698       73.70875
C         93.16251       61.99973       73.05570
C         93.35836       61.12739       71.81078
O         92.56925       60.21826       71.59256
C         92.55020       63.36031       72.64856
O         93.43261       64.07573       71.82773
H         95.27684       61.81790       73.21405
H         92.44787       61.49204       73.73917
H         92.32409       63.95926       73.55767
H         91.59324       63.18127       72.10418
H         93.07138       64.99693       71.75163
N         94.39971       61.36353       70.94712
C         94.64501       60.62479       69.71592
C         93.40626       60.63386       68.83214
O         92.89668       59.56900       68.51576
C         95.17231       59.20755       70.00714
H         95.04783       62.13997       71.14550
H         95.46858       61.12856       69.16272
H         96.09976       59.26414       70.61769
H         94.42670       58.58458       70.54104
H         95.43800       58.70539       69.04932
N         92.84023       61.79256       68.38028
C         93.38308       63.12545       68.60982
C         94.27605       63.50415       67.44741
O         93.80118       63.41710       66.32359
C         92.24171       64.13910       68.72433
H         92.01244       61.71249       67.76899
H         93.86545       63.18420       69.57527
H         91.65572       64.18312       67.78273
H         91.56204       63.85825       69.55656
H         92.65482       65.15016       68.93698
N         95.56001       63.95610       67.56962
C         96.30155       64.19102       68.80831
C         97.56493       63.34282       68.77955
O         97.80838       62.59308       69.71651
C         96.56662       65.70167       68.91953
C         96.93475       66.13401       70.34023
C         97.07399       67.62714       70.40219
O         98.16092       68.13337       70.62489
O         95.99428       68.41379       70.22036
H         96.03517       64.20631       66.69123
H         95.72771       63.92066       69.70522
H         95.61915       66.22849       68.66821
H         97.34563       66.01627       68.19135
H         97.87469       65.63691       70.65726
H         96.12191       65.83818       71.03815
N         98.35352       63.32512       67.66458
C         99.41494       62.36016       67.48678
H        100.24305       62.53960       68.19994
H         99.00629       61.33450       67.62359
H         99.80062       62.42517       66.44542
H         98.13977       63.94715       66.87299
Ca        97.44892       71.36212       81.24742
O         96.66016       70.64479       78.66204
H         95.77016       70.69940       78.23612
H         97.23918       70.21891       77.98350
O         99.41729       73.89722       80.88310
H        100.38983       73.71917       80.86478
H         99.31295       74.73609       80.37004
O         94.97059       72.49271       80.21480
H         94.47043       72.23577       79.40188
H         94.38860       72.20486       80.95665
O         99.65690       71.02982       79.28516
H         99.85417       70.13914       79.66666
H        100.24388       71.08822       78.49174
O         97.19706       73.99049       79.08341
H         97.13402       73.37200       78.31381
H         97.07480       74.89222       78.69425
O         96.76518       73.82126       82.51132
H         97.11217       74.74467       82.58985
H         95.94793       73.80511       83.06894
O         97.88706       68.89785       80.84103
H         98.73180       68.64599       81.27882
H         98.00700       68.66130       79.89259

Ca 1.70



