%chk=loop2.cluster4.chk
%nprocshared=48
%mem=10GB
%nosave
#b3lyp/svp scf=(tight,noincore) Test 
#IOP(5/87=12) Density=Current Pop=(MK,readradii) iop(6/33=2) iop(6/42=6)

loop2.cluster4 

   -2  1 
C         52.28968       42.93097       17.07146
C         53.51913       42.50250       16.33386
O         54.53343       43.18237       16.40736
H         51.42745       42.27915       16.81507
H         52.48987       42.82979       18.15766
H         52.02464       43.98057       16.83075
N         53.50107       41.35148       15.61074
C         54.68026       40.78769       14.98313
C         54.63428       41.06957       13.49451
O         53.60939       40.85568       12.86287
C         54.75052       39.30027       15.34781
C         56.04999       38.64983       14.98641
O         57.04892       39.36714       14.42832
O         56.23185       37.49786       15.31152
H         52.62576       40.80832       15.56122
H         55.59128       41.25736       15.40742
H         53.89403       38.75411       14.90111
H         54.67483       39.22223       16.45799
N         55.72288       41.61674       12.88971
C         55.74156       42.15677       11.54066
C         56.59822       41.29183       10.64139
O         56.08477       40.82126        9.63467
C         56.21736       43.60552       11.63111
H         56.58543       41.69426       13.43504
H         54.72063       42.16931       11.09693
H         56.32814       44.05730       10.62605
H         55.46120       44.18763       12.20436
H         57.18456       43.67141       12.17406
N         57.88109       40.94904       10.97383
C         58.57243       39.88623       10.24559
C         57.82329       38.54760       10.40063
O         58.07391       37.64084        9.61833
C         60.06633       39.75711       10.63877
C         60.32206       39.52526       12.10236
O         59.84267       38.56506       12.66566
O         61.12589       40.35700       12.78966
H         58.32800       41.37481       11.79362
H         58.56351       40.16418        9.16571
H         60.60108       40.68723       10.35058
H         60.51249       38.91868       10.05987
N         56.84585       38.38093       11.35227
C         55.99465       37.20010       11.43377
C         56.67536       35.94504       11.95156
O         56.11211       34.87003       11.80991
H         56.63830       39.14630       12.00210
H         55.56290       37.02021       10.42660
H         55.14701       37.40777       12.12270
N         57.87730       36.00859       12.58570
C         58.63632       34.83067       13.00848
C         58.12155       34.17385       14.29560
O         58.73999       33.22999       14.76989
C         60.12017       35.22759       13.16954
C         60.46225       35.96448       14.43936
N         61.65993       35.74341       15.02804
O         59.66912       36.74780       14.93993
H         58.29994       36.92634       12.70675
H         58.62277       34.10430       12.16649
H         60.44656       35.83225       12.29531
H         60.73234       34.30196       13.15257
H         62.33937       35.09695       14.60668
H         61.92135       36.21752       15.89612
N         57.00670       34.63636       14.92278
C         56.51087       34.11853       16.18448
C         57.29182       34.57237       17.40502
O         57.27152       33.86051       18.39604
H         56.44748       35.36117       14.46747
H         56.38537       33.01511       16.15260
H         55.49584       34.54547       16.33722
N         57.82288       35.83111       17.47316
C         58.30533       36.42426       18.72533
C         58.22733       37.94644       18.70461
O         57.96977       38.54725       17.67301
C         59.74388       35.97725       19.11127
C         59.83441       34.52164       19.58508
O         60.64818       36.25267       18.07190
H         57.74999       36.42692       16.64646
H         57.59023       36.15833       19.53238
H         60.07426       36.56349       19.99302
H         60.89610       35.39936       17.63068
H         59.09558       34.34893       20.39532
H         59.66181       33.81306       18.75133
H         60.85192       34.33225       19.98644
N         58.42956       38.62997       19.86617
C         58.36625       40.07583       19.96952
C         59.77852       40.56947       20.14130
O         60.45355       40.17865       21.08559
C         57.43152       40.49698       21.14256
C         55.98494       40.01543       20.85583
C         57.49845       42.02092       21.37692
C         55.00148       40.30647       21.99190
H         58.65849       38.10232       20.72107
H         57.95540       40.52644       19.03699
H         57.78175       40.00358       22.07705
H         56.00193       38.91261       20.72003
H         55.59933       40.47299       19.91800
H         57.22772       42.57952       20.45687
H         56.83500       42.33570       22.20653
H         58.52439       42.31406       21.68620
H         54.02227       39.83619       21.76228
H         55.38057       39.88763       22.94816
H         54.82704       41.39536       22.10682
N         60.28674       41.44879       19.24006
C         61.62705       42.00318       19.32208
C         61.52697       43.47029       19.64342
O         60.42915       44.00144       19.64614
C         62.42635       41.71647       18.02500
C         61.63131       41.86468       16.74395
O         61.89498       42.74442       15.94009
O         60.70970       40.91651       16.44671
H         59.66653       41.79281       18.48908
H         62.18639       41.56570       20.17819
H         62.75281       40.65493       18.03941
H         63.34669       42.33749       18.01547
N         62.61691       44.17393       20.04947
C         62.52409       45.55382       20.50717
C         62.08865       46.50956       19.38752
O         61.24817       47.34889       19.66104
C         63.81578       45.98461       21.24438
C         63.71853       47.35142       21.89250
C         64.60358       48.37242       21.50932
C         62.76372       47.61317       22.89710
C         64.52883       49.63441       22.10665
C         62.69414       48.87914       23.49129
C         63.57411       49.88879       23.09408
H         63.52528       43.68237       20.11516
H         61.73481       45.58944       21.29179
H         64.67965       45.94627       20.55242
H         64.01536       45.25022       22.05822
H         65.35146       48.18969       20.74888
H         62.07897       46.84104       23.22412
H         65.21341       50.41561       21.80365
H         61.95925       49.07809       24.26181
H         63.51912       50.86770       23.55371
N         62.58163       46.44264       18.10286
C         62.17640       47.39373       17.06979
C         60.70182       47.30216       16.67548
O         60.15516       48.28141       16.18414
C         63.12467       47.06531       15.90522
C         64.33274       46.46748       16.62934
C         63.65353       45.58667       17.66634
H         62.40664       48.40558       17.46738
H         62.69281       46.24569       15.28781
H         63.35316       47.93138       15.24661
H         65.05467       45.93337       15.97606
H         64.86636       47.28073       17.17278
H         63.21541       44.70077       17.15499
H         64.36072       45.26618       18.45306
N         59.99248       46.15395       16.86657
C         58.53997       46.06182       16.69959
C         57.86099       46.65864       17.92048
O         56.92209       47.42702       17.77960
C         58.13281       44.58892       16.53000
C         58.65065       44.05507       15.18625
C         58.45487       42.58924       15.06266
O         58.87506       42.01435       14.07374
O         57.85894       41.89092       16.04930
H         60.49182       45.32318       17.22517
H         58.19027       46.58299       15.77911
H         57.02459       44.47697       16.53551
H         58.54634       43.99114       17.37321
H         59.73827       44.24248       15.08692
H         58.12171       44.56243       14.34792
N         58.33501       46.37035       19.16214
C         57.79765       46.93827       20.37512
H         56.75167       46.60576       20.52799
H         58.41042       46.59511       21.23968
H         57.85603       48.04511       20.33045
H         59.14512       45.76383       19.24573
Ca        59.09659       39.64420       15.39435
O         61.60692       38.54973       16.15257
H         62.54951       38.41984       15.88610
H         61.59254       38.42067       17.13360

Ca 1.70



