%chk=loop2.cluster209.chk
%nprocshared=48
%mem=10GB
%nosave
#b3lyp/svp scf=(tight,noincore) Test 
#IOP(5/87=12) Density=Current Pop=(MK,readradii) iop(6/33=2) iop(6/42=6)

loop2.cluster209 

   -2  1 
C         86.29289       50.26458       60.64476
C         86.06768       50.33028       59.16085
O         85.16104       49.67623       58.66470
H         87.14695       50.90631       60.94913
H         85.38610       50.59854       61.18983
H         86.52863       49.21796       60.93234
N         86.88975       51.08594       58.37821
C         86.78374       51.12228       56.92501
C         85.46044       51.69984       56.47661
O         85.05808       52.75775       56.94020
C         87.95520       51.90179       56.31053
C         87.95141       51.80987       54.80594
O         87.93356       52.82436       54.12849
O         87.97731       50.60495       54.20185
H         87.65294       51.61238       58.82942
H         86.87893       50.07705       56.55333
H         88.89948       51.44188       56.67049
H         87.92611       52.96385       56.63765
N         84.74596       51.02753       55.53815
C         83.41698       51.40825       55.09204
C         82.49889       50.22144       55.37378
O         83.01240       49.15799       55.69628
C         83.50240       51.71546       53.59184
H         85.15898       50.17587       55.12865
H         83.07298       52.31103       55.63207
H         83.89332       50.83013       53.04482
H         82.53237       51.99468       53.14745
H         84.20371       52.56186       53.42817
N         81.14089       50.26363       55.28919
C         80.31296       51.44130       55.02933
C         80.46072       52.52817       56.09929
O         81.11285       52.30408       57.11110
C         78.82482       51.00995       54.90337
C         78.29014       50.26195       56.10574
O         78.57089       49.08548       56.27605
O         77.42564       50.85988       56.94416
H         80.67233       49.36208       55.43474
H         80.60431       51.88428       54.06054
H         78.69777       50.35490       54.01302
H         78.19699       51.90656       54.73058
N         79.85960       53.74730       55.93111
C         79.97731       54.82233       56.91204
C         81.35110       55.47125       56.88972
O         82.14987       55.12752       56.02878
H         79.28440       53.91470       55.09091
H         79.73514       54.41537       57.91517
H         79.24240       55.62187       56.66871
N         81.72189       56.44929       57.77315
C         80.89085       56.96678       58.86490
C         81.54217       56.76187       60.23780
O         80.91493       57.09824       61.23507
C         80.70651       58.48394       58.65123
C         79.96430       58.79450       57.38079
N         78.61434       58.72218       57.34513
O         80.58163       59.14802       56.38719
H         82.65874       56.86665       57.65209
H         79.90039       56.46953       58.89221
H         81.71863       58.94637       58.60619
H         80.16992       58.96758       59.49691
H         78.08281       58.46862       58.19094
H         78.10226       58.95727       56.48232
N         82.81664       56.28240       60.37157
C         83.51649       56.24118       61.64460
C         83.10456       55.14409       62.60000
O         83.71542       55.06643       63.65490
H         83.36738       56.05042       59.53609
H         83.41862       57.22716       62.15539
H         84.59654       56.08369       61.44282
N         82.06845       54.28673       62.34369
C         81.61867       53.33507       63.36167
C         81.32553       51.95442       62.81186
O         81.35335       51.73801       61.61213
C         80.35890       53.89407       64.06250
C         80.66822       55.18854       64.81265
O         79.34145       54.13069       63.11989
H         81.51557       54.38904       61.48303
H         82.40614       53.18726       64.13186
H         80.01769       53.17101       64.83997
H         78.57416       53.54457       63.34957
H         81.48254       55.00960       65.54829
H         80.98080       55.99073       64.11278
H         79.76628       55.52988       65.35951
N         81.00171       50.97134       63.70154
C         80.56737       49.63293       63.32649
C         79.13372       49.41516       63.80125
O         78.56598       50.27065       64.46333
C         81.53519       48.55008       63.90427
C         82.90653       48.50701       63.18731
C         81.77475       48.73717       65.41584
C         82.81064       48.17282       61.69896
H         81.02156       51.19870       64.70403
H         80.51037       49.52816       62.23105
H         81.06839       47.55174       63.76043
H         83.51206       47.70124       63.65924
H         83.44726       49.46942       63.30718
H         82.32755       47.86770       65.82938
H         82.39261       49.64261       65.60524
H         80.81717       48.83777       65.96713
H         83.82776       48.03836       61.27695
H         82.25355       47.23186       61.56826
H         82.31026       48.97467       61.12329
N         78.48650       48.26343       63.46155
C         77.09225       48.00288       63.80743
C         76.77928       46.51914       63.68869
O         77.07761       45.90697       62.67473
C         76.11690       48.83546       62.93652
C         76.29588       48.60463       61.46444
O         77.11089       49.38806       60.73843
O         75.79878       47.62190       60.93877
H         78.99809       47.55848       62.91779
H         76.91544       48.29018       64.86725
H         76.22902       49.91711       63.14956
H         75.07202       48.56012       63.20471
N         76.10451       45.89881       64.69567
C         75.67005       44.51002       64.61823
C         76.84932       43.54748       64.64186
O         77.64243       43.61974       65.56887
C         74.71279       44.20504       65.79037
C         74.15750       42.80105       65.71087
C         74.95137       41.69061       66.05843
C         72.83985       42.59214       65.27563
C         74.43717       40.39772       65.95861
C         72.33049       41.29502       65.17569
C         73.12840       40.19907       65.51577
H         75.81720       46.45985       65.51187
H         75.05935       44.39381       63.69978
H         73.87674       44.93530       65.70701
H         75.19316       44.36839       66.77958
H         75.96512       41.82241       66.41061
H         72.21516       43.43209       64.99850
H         75.05557       39.55020       66.22491
H         71.31748       41.14019       64.83054
H         72.73224       39.19595       65.43758
N         76.98828       42.55647       63.69920
C         78.01855       41.53048       63.78149
C         79.37371       42.04034       63.33021
O         80.33499       41.28251       63.34995
C         77.48125       40.46147       62.81916
C         76.80936       41.30319       61.74613
C         76.09876       42.37251       62.57292
H         78.09226       41.09942       64.80434
H         78.23568       39.73214       62.45275
H         76.66885       39.90104       63.33418
H         77.62195       41.79205       61.16618
H         76.15376       40.76248       61.03231
H         75.98696       43.28676       61.94870
H         75.11187       42.02566       62.94908
N         79.51289       43.30763       62.86442
C         80.74211       43.82841       62.29301
C         81.73915       44.28376       63.34825
O         82.76148       44.84073       62.97510
C         80.34602       44.92995       61.29281
C         79.66155       44.27009       60.07368
C         79.03800       45.25610       59.14679
O         79.00198       46.55192       59.50444
O         78.50444       44.86913       58.12115
H         78.67737       43.90377       62.80399
H         81.25811       43.04971       61.69037
H         81.22692       45.46727       60.90350
H         79.68181       45.66383       61.80314
H         78.84961       43.58805       60.39612
H         80.42912       43.68203       59.52819
N         81.55513       44.01085       64.67579
C         82.54295       44.33533       65.68532
H         83.42603       44.86436       65.27063
H         82.07702       44.97319       66.46267
H         82.89760       43.39352       66.15793
H         80.71400       43.51354       64.99387
Ca        77.80189       48.34140       58.88741
O         80.09778       49.66625       59.53608
H         80.87049       50.19578       59.22198
H         79.65254       50.23778       60.21065
O         76.14306       46.52655       57.36436
H         75.74300       45.83885       56.77799
H         77.10653       46.49460       57.14653

Ca 1.70



