%chk=loop3.cluster108.chk
%nprocshared=48
%mem=10GB
%nosave
#b3lyp/svp scf=(tight,noincore) Test 
#IOP(5/87=12) Density=Current Pop=(MK,readradii) iop(6/33=2) iop(6/42=6)

loop3.cluster108 

   0  1 
C         84.21550       64.42888       33.70838
C         84.55552       63.33621       32.74828
O         84.07379       62.22355       32.91581
H         83.12028       64.59745       33.73898
H         84.57402       64.11705       34.71161
H         84.72520       65.37602       33.43402
N         85.41748       63.56968       31.72072
C         85.88302       62.48722       30.87045
C         86.73314       61.51568       31.67095
O         87.24253       61.86339       32.72859
C         86.71197       62.98774       29.65630
C         87.94072       63.78462       30.03172
O         89.05274       63.31534       29.85148
O         87.82232       65.03897       30.50818
H         85.76549       64.52485       31.57197
H         84.99287       61.95242       30.46811
H         86.08520       63.60261       28.97674
H         87.03500       62.09529       29.07445
N         87.00786       60.29952       31.14306
C         88.01115       59.40584       31.69874
C         87.51665       58.70642       32.95882
O         88.27553       58.58529       33.91006
C         88.44994       58.44918       30.57444
C         89.79421       57.75886       30.84735
C         90.28069       56.98779       29.60804
C         89.52430       55.66620       29.42621
N         89.91909       54.99578       28.18954
H         86.56946       60.05518       30.24043
H         88.91586       60.00902       31.93754
H         88.63123       59.08984       29.67780
H         87.63472       57.74075       30.32325
H         89.74660       57.09520       31.73636
H         90.53896       58.56059       31.04882
H         91.35903       56.74844       29.72815
H         90.18214       57.63491       28.70590
H         88.42867       55.83530       29.39955
H         89.76105       55.01295       30.29570
H         89.45185       54.06131       28.14969
H         89.60684       55.56354       27.36797
H         90.95543       54.86195       28.15532
N         86.24418       58.21387       33.02020
C         85.69444       57.52060       34.18762
C         85.86821       56.03680       33.97827
O         84.92949       55.32726       33.64643
C         84.26475       58.00497       34.53872
C         83.20240       57.76456       33.50193
O         82.05656       57.15588       33.85613
O         83.33267       58.18384       32.36513
H         85.65882       58.30450       32.18166
H         86.28414       57.76711       35.09889
H         84.31349       59.09702       34.72911
H         83.93708       57.51237       35.48268
N         87.11352       55.51571       34.13610
C         87.47522       54.15358       33.81782
C         87.55058       53.94322       32.31908
O         87.13592       54.81511       31.56839
H         87.86335       56.12893       34.48836
H         86.82098       53.41856       34.33227
H         88.51045       54.03249       34.19222
N         88.15497       52.84448       31.78365
C         88.70574       51.75688       32.59270
C         87.58366       50.90122       33.16060
O         86.47621       50.97060       32.64428
C         89.61898       50.87738       31.70970
C         90.82155       51.66524       31.25108
N         91.03253       51.90205       29.93652
O         91.61078       52.09739       32.07871
H         88.26522       52.80882       30.75714
H         89.33094       52.17836       33.40298
H         89.03182       50.50400       30.84179
H         89.98914       49.98637       32.25301
H         90.37509       51.54968       29.22641
H         91.85269       52.44745       29.63287
N         87.77910       50.01167       34.18129
C         88.97762       49.94272       35.00918
C         88.89744       50.96148       36.12458
O         88.73652       52.13942       35.83904
H         86.99652       49.39482       34.43302
H         89.89781       50.06406       34.41412
H         89.02120       48.93275       35.46796
N         88.93192       50.56975       37.43850
C         88.60671       51.49626       38.52333
C         89.43347       51.19618       39.77023
O         89.37508       50.07872       40.27191
C         87.09475       51.44080       38.86779
C         86.20275       51.11626       37.68540
C         85.57527       52.11063       36.91404
C         86.00592       49.76604       37.34989
C         84.78849       51.75357       35.81112
C         85.20975       49.41277       36.26303
C         84.60964       50.40610       35.47915
O         83.87360       50.07358       34.39960
H         89.03651       49.56772       37.65626
H         88.81194       52.52524       38.16899
H         86.80082       52.38775       39.36643
H         86.90218       50.64649       39.61783
H         85.69844       53.15302       37.14710
H         86.48007       48.98679       37.93381
H         84.32421       52.52416       35.20792
H         85.07834       48.36663       36.01801
H         83.77601       49.15218       34.11779
N         90.25740       52.14110       40.30288
C         91.21813       51.87975       41.37191
C         91.41544       53.04487       42.36150
O         92.24619       52.90860       43.24330
C         92.61313       51.63658       40.72067
C         92.71086       50.22194       40.11699
C         92.93714       52.74022       39.68188
C         94.12675       49.89301       39.64998
H         90.32716       53.03414       39.80871
H         90.92219       50.99255       41.97972
H         93.37559       51.67156       41.52877
H         91.99824       50.09050       39.27499
H         92.44944       49.48996       40.91288
H         92.33538       52.59202       38.75683
H         92.69908       53.74966       40.08223
H         94.00746       52.73339       39.40538
H         94.41683       50.52941       38.78947
H         94.84768       50.04790       40.48200
H         94.17401       48.83052       39.33581
N         90.74934       54.22859       42.23667
C         91.14322       55.42611       42.99669
C         91.55805       56.59220       42.08701
O         92.16006       57.53506       42.58917
C         90.05258       55.83204       43.99683
O         88.89892       56.30212       43.35629
H         89.99060       54.28538       41.57320
H         92.04425       55.19066       43.59744
H         90.43905       56.64363       44.64936
H         89.80849       54.97272       44.66339
H         88.46680       55.51552       42.93931
N         91.27064       56.60717       40.75201
C         91.73716       57.62282       39.81570
C         90.61882       58.61220       39.50196
O         90.24718       58.78365       38.34736
C         92.26175       56.89039       38.56495
H         90.71377       55.85196       40.36249
H         92.57089       58.20363       40.26334
H         91.43215       56.35056       38.05635
H         92.71867       57.58688       37.83497
H         93.01540       56.12956       38.86299
N         90.01292       59.27740       40.53090
C         88.87517       60.18417       40.38928
C         87.75114       59.58380       39.56205
O         87.07161       60.31434       38.85337
C         89.29721       61.56714       39.87741
H         90.32973       59.07440       41.48960
H         88.46787       60.35116       41.41189
H         90.02695       62.02406       40.57781
H         89.74528       61.49818       38.86543
H         88.41205       62.24154       39.83404
N         87.47778       58.25118       39.63581
C         86.38126       57.63791       38.89353
C         85.27249       57.25022       39.85442
O         84.12393       57.57484       39.58901
C         86.83073       56.53814       37.89313
C         87.18028       55.14780       38.40758
C         88.42301       55.13970       39.18678
O         88.37658       55.37400       40.49814
O         89.47647       54.85243       38.64721
H         88.05114       57.67405       40.25971
H         85.93932       58.39152       38.20757
H         87.68426       56.92310       37.28656
H         85.98482       56.36362       37.19675
H         87.37681       54.51776       37.51444
H         86.35013       54.68544       38.98293
N         85.54806       56.63794       41.04200
C         84.53271       56.40088       42.04051
H         83.67166       55.85927       41.60084
H         84.95898       55.79302       42.86804
H         84.20164       57.37376       42.46383
H         86.50711       56.38239       41.28356
Ca        80.06752       56.93741       31.68940
O         79.05184       56.10419       34.17502
H         78.42657       55.60674       34.75767
H         79.32608       56.89258       34.70736
O         81.71783       56.47786       29.44120
H         82.23092       57.11715       28.88731
H         80.98395       56.16540       28.85427
O         78.65454       54.54913       31.32019
H         77.98214       54.57558       32.04624
H         78.12534       54.45942       30.48896
O         80.92018       59.57363       31.53905
H         81.35570       59.78942       32.40161
H         81.65925       59.53541       30.88092
O         81.98453       54.74599       32.09068
H         82.39260       54.90440       32.97686
H         82.70840       54.32932       31.56148

Ca 1.70



