%chk=loop1.cluster86.chk
%nprocshared=48
%mem=10GB
%nosave
#b3lyp/svp scf=(tight,noincore) Test 
#IOP(5/87=12) Density=Current Pop=(MK,readradii) iop(6/33=2) iop(6/42=6)

loop1.cluster86 

   0  1 
C         41.43003        0.68521       36.98666
C         41.28853       -0.77222       37.28035
O         42.10276       -1.55061       36.81557
H         42.33897        0.86999       36.37301
H         40.54469        1.01940       36.40413
H         41.49911        1.26186       37.92955
N         40.25592       -1.23020       38.03924
C         39.95492       -2.65011       38.15912
C         38.44905       -2.87293       38.05960
O         37.89012       -3.61357       38.84939
C         40.62377       -3.27828       39.40909
C         40.24241       -2.65261       40.72802
O         40.77059       -3.14045       41.86667
O         39.47331       -1.70608       40.78076
H         39.59094       -0.54435       38.43154
H         40.37834       -3.18459       37.27868
H         41.72718       -3.19248       39.30425
H         40.37587       -4.36172       39.44573
N         37.73825       -2.22936       37.07972
C         36.30948       -2.44566       36.84862
C         36.06885       -2.69686       35.36712
O         36.27503       -1.77175       34.59681
C         35.49704       -1.19206       37.21954
C         35.36731       -1.00354       38.72690
C         34.43722        0.17949       39.02159
C         34.21856        0.39724       40.52249
N         35.45359        0.78806       41.20364
H         38.22735       -1.55369       36.47781
H         35.93796       -3.27755       37.46299
H         34.46634       -1.30937       36.81671
H         35.94899       -0.28776       36.74978
H         36.37350       -0.84750       39.16607
H         34.91293       -1.92093       39.16306
H         33.44488       -0.02356       38.55886
H         34.84170        1.11043       38.56659
H         33.80134       -0.52443       40.98765
H         33.46910        1.21004       40.63916
H         35.91230        1.57962       40.69621
H         35.22047        1.10131       42.17275
H         36.11052       -0.02195       41.26788
N         35.60259       -3.87674       34.84917
C         35.31505       -5.12659       35.55627
C         34.13709       -5.00300       36.52597
O         33.69207       -3.88657       36.74779
C         36.57607       -5.69504       36.22750
C         37.80750       -5.55046       35.38729
O         37.84201       -5.98579       34.24819
O         38.87818       -4.92051       35.89740
H         35.47353       -3.90320       33.82420
H         35.01519       -5.84541       34.76150
H         36.39656       -6.74851       36.41161
H         36.77936       -5.23425       37.20890
N         33.52614       -6.06677       37.13802
C         33.78660       -7.48706       36.91722
C         34.03991       -8.18094       38.25131
O         33.23074       -7.97757       39.14756
H         32.74967       -5.84450       37.78161
H         34.53470       -7.65899       36.13700
H         32.84887       -7.92309       36.51518
N         35.10167       -9.00150       38.52430
C         36.13602       -9.41977       37.58125
C         37.39548       -8.62319       37.80868
O         38.05850       -8.29183       36.83645
C         36.38950      -10.94460       37.63474
C         37.08378      -11.42606       38.88670
O         36.53141      -11.23551       40.09884
O         38.15087      -12.01336       38.80072
H         35.18053       -9.34399       39.49058
H         35.80724       -9.24061       36.54143
H         37.02809      -11.22424       36.76514
H         35.42037      -11.47510       37.51965
N         37.75065       -8.19538       39.05476
C         38.83973       -7.26784       39.26958
C         40.13239       -7.80714       38.72018
O         40.59767       -8.84797       39.16055
H         37.20005       -8.48444       39.87586
H         38.94680       -7.04837       40.35250
H         38.57814       -6.30944       38.76656
N         40.76677       -7.12151       37.73688
C         42.00256       -7.56358       37.10744
C         42.67114       -6.38322       36.44290
O         42.02806       -5.61717       35.74976
C         41.79202       -8.78043       36.17278
C         42.95799       -8.99274       35.19844
O         40.61571       -8.64317       35.42983
H         40.35212       -6.22900       37.42965
H         42.71193       -7.89121       37.89532
H         41.72961       -9.68494       36.82553
H         39.95500       -9.26851       35.82365
H         42.97302       -8.17728       34.43889
H         43.92651       -8.99793       35.73884
H         42.83644       -9.95313       34.65621
N         43.98558       -6.15741       36.68367
C         44.68410       -4.95914       36.26836
C         46.08517       -5.35044       35.86784
O         47.03650       -5.12811       36.60382
C         44.53021       -3.85378       37.35540
C         45.43183       -2.61706       37.10082
C         44.77732       -4.37019       38.78373
C         45.29930       -1.97944       35.71755
H         44.49901       -6.82670       37.27833
H         44.22606       -4.53953       35.34667
H         43.46314       -3.54651       37.32827
H         46.49175       -2.90722       37.23131
H         45.21048       -1.84120       37.86399
H         44.09858       -5.21551       39.02813
H         45.82686       -4.69960       38.91612
H         44.55428       -3.56396       39.51464
H         45.50931       -2.70715       34.90673
H         44.29443       -1.54231       35.57772
H         46.04680       -1.16449       35.62773
N         46.25829       -6.00477       34.69144
C         47.55425       -6.44199       34.20035
C         47.74501       -6.11508       32.71882
O         48.72836       -6.56322       32.14852
C         47.69036       -7.95848       34.45833
C         46.65117       -8.79517       33.70835
O         47.56188       -8.21771       35.83361
H         45.41797       -6.24130       34.14044
H         48.38200       -5.95279       34.76289
H         48.69493       -8.29350       34.11246
H         48.41687       -7.95004       36.26163
H         46.71758       -8.62342       32.61471
H         46.83995       -9.86990       33.90696
H         45.62470       -8.55199       34.04786
N         46.84985       -5.33309       32.03509
C         46.91580       -5.05644       30.60235
C         46.54349       -6.28032       29.78286
O         46.96970       -7.38240       30.10182
C         48.27849       -4.50377       30.09799
C         48.88254       -3.42717       31.01238
O         48.09061       -3.99755       28.79476
H         46.07628       -4.88580       32.54476
H         46.14922       -4.27251       30.40221
H         49.00366       -5.34458       30.05308
H         48.89023       -3.47125       28.53491
H         48.98214       -3.79473       32.05333
H         49.91076       -3.19643       30.65660
H         48.27518       -2.50090       31.00248
N         45.88924       -6.10678       28.60115
C         45.73513       -7.15878       27.61230
C         44.34343       -7.47420       27.09363
O         44.23955       -8.54747       26.51199
C         46.61751       -6.80664       26.40004
C         48.08383       -7.00725       26.76102
C         49.01835       -6.69201       25.59853
C         50.41765       -7.19812       25.96142
N         51.37546       -6.94648       24.89209
H         45.64970       -5.15555       28.33768
H         46.08348       -8.13035       28.03429
H         46.40939       -5.76291       26.06998
H         46.40072       -7.48467       25.54489
H         48.19637       -8.08094       27.02890
H         48.37532       -6.39058       27.63657
H         49.01972       -5.59523       25.40503
H         48.67503       -7.21615       24.67979
H         50.36179       -8.29665       26.14093
H         50.76321       -6.70587       26.89727
H         51.07191       -7.43309       24.01743
H         51.46015       -5.91861       24.72347
H         52.30418       -7.32571       25.18672
N         43.22941       -6.68701       27.12930
C         42.97473       -5.36332       27.68501
C         43.78597       -4.20944       27.12331
O         44.20405       -3.33967       27.87825
C         42.75677       -5.38996       29.22411
C         41.60475       -4.42358       29.56032
C         41.03695       -4.51472       30.93312
O         39.84303       -4.31120       31.09298
O         41.80552       -4.70862       32.00878
H         42.40651       -7.10147       26.65855
H         41.97549       -5.14564       27.25122
H         43.68588       -5.16526       29.79597
H         42.42284       -6.40765       29.51954
H         40.74410       -4.70407       28.91268
H         41.86462       -3.37249       29.32722
N         44.00673       -4.11860       25.78329
C         44.68761       -2.99158       25.17604
H         45.62854       -3.33382       24.69881
H         44.02661       -2.54960       24.40139
H         44.93051       -2.19193       25.90803
H         43.67282       -4.87343       25.16626
Ca        40.58192       -4.57185       33.87149
O         42.37963       -2.53031       34.09236
H         42.32428       -3.03223       34.94339
H         43.25089       -2.80131       33.71300
O         39.39100       -2.08472       33.91798
H         39.27046       -1.32071       33.30321
H         38.48025       -2.43070       34.07139
O         40.26521       -7.03750       32.88658
H         39.85104       -7.80539       33.34518
H         40.58897       -7.39653       32.02568

Ca 1.70



