%chk=loop4.cluster98.chk
%nprocshared=48
%mem=10GB
%nosave
#b3lyp/svp scf=(tight,noincore) Test 
#IOP(5/87=12) Density=Current Pop=(MK,readradii) iop(6/33=2) iop(6/42=6)

loop4.cluster98 

   -3  1 
C         76.49049       23.15673       60.85878
C         77.59259       22.61211       61.71968
O         78.73840       23.00774       61.56298
H         75.70206       23.59391       61.50776
H         76.86409       23.94247       60.16912
H         76.04541       22.33333       60.26063
N         77.29323       21.69485       62.68036
C         78.27090       21.08944       63.58021
C         78.97119       22.14276       64.43761
O         80.19076       22.14102       64.54312
C         79.23139       20.16123       62.80345
C         78.46333       19.11902       62.03675
O         78.49957       19.11057       60.81856
O         77.72926       18.19627       62.68891
H         76.30728       21.41239       62.79207
H         77.70256       20.44628       64.28950
H         79.92444       19.63903       63.49823
H         79.83978       20.76213       62.09595
N         78.21834       23.06261       65.10835
C         78.74240       24.03765       66.06735
C         78.03304       23.81285       67.39689
O         76.81216       23.73290       67.39892
C         78.46811       25.50547       65.59078
C         79.43585       25.87370       64.43989
C         78.58890       26.53769       66.74454
C         79.20887       27.28051       63.87865
H         77.19829       23.05239       64.95252
H         79.83651       23.92581       66.18476
H         77.41675       25.56507       65.23191
H         79.29825       25.14417       63.61639
H         80.49183       25.80881       64.79142
H         78.31412       27.55528       66.40574
H         77.86590       26.31897       67.55832
H         79.61275       26.55995       67.16766
H         79.83860       27.42805       62.97779
H         78.14242       27.41693       63.60386
H         79.50292       28.06061       64.61326
N         78.68926       23.82520       68.59448
C         80.13927       23.90295       68.74314
C         80.71333       22.53017       68.46981
O         81.73240       22.42721       67.80099
C         80.53557       24.45291       70.12674
C         80.05661       25.87752       70.30724
O         78.73920       26.15910       70.32063
O         80.86478       26.78333       70.44175
H         78.12105       23.74801       69.45237
H         80.58469       24.64269       68.04400
H         81.64679       24.45272       70.19479
H         80.13165       23.81939       70.94219
N         80.01051       21.41759       68.83827
C         80.36716       20.08617       68.40036
C         81.66281       19.63527       69.00882
O         81.76803       19.55789       70.22372
H         79.13322       21.52285       69.36794
H         80.41659       20.08402       67.28728
H         79.56680       19.37389       68.69228
N         82.68912       19.28612       68.19409
C         83.99744       18.85912       68.67247
C         85.11874       19.65221       68.01503
O         86.27572       19.34070       68.26949
C         84.13881       17.32655       68.47991
C         83.80203       16.75156       67.12347
O         83.59401       17.46521       66.15852
O         83.65972       15.41957       66.99613
H         82.52391       19.30504       67.17826
H         84.09964       19.02681       69.76816
H         83.42062       16.86502       69.18892
H         85.15560       16.98642       68.78107
N         84.87303       20.70821       67.17645
C         85.94900       21.41554       66.50318
C         86.62652       20.56596       65.43253
O         87.61299       21.01101       64.86856
H         83.91014       21.03494       67.01186
H         86.68396       21.75641       67.26430
H         85.54135       22.32146       66.00091
N         86.10273       19.35644       65.06137
C         86.64001       18.50142       64.00674
C         86.69446       19.24711       62.69277
O         87.75227       19.37081       62.08521
C         87.95752       17.81059       64.40573
C         87.75747       16.89818       65.63026
C         88.94270       15.98863       65.83614
N         88.78080       14.64208       65.84712
O         90.05589       16.46683       65.99312
H         85.23457       19.04112       65.49654
H         85.91401       17.67179       63.84530
H         88.76956       18.54567       64.59567
H         88.25546       17.16813       63.54738
H         86.85371       16.26709       65.47816
H         87.59203       17.51841       66.53612
H         87.84691       14.22049       65.73015
H         89.59064       14.01906       65.98239
N         85.54485       19.76674       62.19206
C         85.46432       20.48651       60.92969
C         85.28002       19.55522       59.74579
O         84.42693       18.67495       59.78552
C         84.31069       21.53566       60.90909
C         82.93755       20.97849       61.33925
C         84.64960       22.77145       61.74931
H         84.68499       19.61786       62.73869
H         86.40215       21.06590       60.76355
H         84.22820       21.88945       59.85571
H         82.68435       20.04059       60.80909
H         82.90322       20.78692       62.43258
H         82.14445       21.71982       61.11563
H         85.60886       23.21707       61.40721
H         83.85692       23.53909       61.61640
H         84.73370       22.51445       62.82551
N         85.96430       19.80193       58.59256
C         85.69339       19.13598       57.32423
C         85.30250       20.19744       56.29003
O         85.89634       21.27283       56.30121
C         86.96228       18.40529       56.85922
C         86.65329       17.41564       55.76635
N         86.00801       16.26075       56.06299
O         87.01093       17.63728       54.61991
H         86.67682       20.55169       58.59705
H         84.87758       18.38591       57.44380
H         87.41501       17.82880       57.69431
H         87.70984       19.15897       56.52664
H         85.74238       16.04594       57.03653
H         85.80986       15.56557       55.32877
N         84.31013       19.99065       55.37606
C         83.90577       21.03087       54.42371
C         82.48245       20.74814       53.94678
O         82.25211       20.58598       52.75643
C         84.92455       21.10294       53.24449
C         84.76909       22.34947       52.39468
C         85.11850       23.60153       52.92913
C         84.30913       22.27676       51.06617
C         85.00378       24.76082       52.15562
C         84.18042       23.44279       50.29855
C         84.52731       24.68859       50.84359
O         84.40618       25.81921       50.11681
H         83.81073       19.08531       55.38089
H         83.87751       22.00537       54.96131
H         84.81129       20.18068       52.63131
H         85.96988       21.10320       53.62120
H         85.49477       23.67513       53.94142
H         84.04037       21.32364       50.62881
H         85.28497       25.71790       52.57717
H         83.81353       23.37902       49.28116
H         84.05873       25.81244       49.21340
N         81.47850       20.60805       54.86440
C         80.14553       20.13589       54.49125
C         79.28417       21.20374       53.81771
O         78.91156       20.97492       52.67509
C         79.45120       19.37447       55.64917
C         80.12605       18.01396       55.88010
C         79.39151       17.15065       56.86926
O         79.02099       17.64430       58.06926
O         79.40231       15.94041       56.70790
H         81.71146       20.70763       55.86426
H         80.27133       19.35195       53.70956
H         78.39798       19.18354       55.35988
H         79.46721       19.93128       56.60367
H         81.17086       18.15712       56.22851
H         80.16764       17.45801       54.91540
N         78.91240       22.39113       54.38303
C         79.23092       22.83698       55.73138
C         80.46047       23.72287       55.71210
O         81.02402       23.95907       54.65088
C         78.00996       23.60244       56.31444
C         76.67890       22.82510       56.23539
C         76.63695       21.58781       57.07875
O         75.64438       20.87750       57.05550
O         77.66528       21.27120       57.88670
H         78.36601       23.03996       53.79364
H         79.47735       21.99244       56.37993
H         77.87215       24.53223       55.71984
H         78.19828       23.90222       57.36810
H         76.47042       22.54935       55.17989
H         75.85494       23.48816       56.57580
N         80.95558       24.22892       56.87461
C         82.13006       25.07268       56.89725
H         82.99179       24.54033       56.44080
H         81.93300       26.01190       56.33745
H         82.38653       25.33068       57.94641
H         80.49268       24.00408       57.76767
Ca        77.04324       18.69891       58.45946
O         76.96542       16.20589       59.86210
H         77.31222       15.54222       59.21441
H         76.03171       15.92613       60.03354
O         76.16271       17.24780       56.40632
H         76.03403       16.33606       56.04892
H         75.97027       17.86107       55.65393

Ca 1.70



