%chk=loop2.cluster57.chk
%nprocshared=48
%mem=10GB
%nosave
#b3lyp/svp scf=(tight,noincore) Test 
#IOP(5/87=12) Density=Current Pop=(MK,readradii) iop(6/33=2) iop(6/42=6)

loop2.cluster57 

   -2  1 
C         81.60418       48.96504       59.36247
C         80.24655       48.93171       58.72210
O         79.37468       48.22484       59.20692
H         82.30641       49.61013       58.79198
H         81.52191       49.35105       60.39790
H         82.02642       47.93708       59.38532
N         80.00780       49.64527       57.58850
C         78.75598       49.53672       56.85049
C         77.65948       50.38793       57.44092
O         77.90135       51.53294       57.80177
C         78.95126       49.95204       55.38379
C         79.97886       49.08093       54.71940
O         79.78405       47.88112       54.60074
O         81.12702       49.61923       54.26930
H         80.77858       50.19734       57.18020
H         78.43323       48.47182       56.81933
H         79.26609       51.01651       55.33380
H         77.99036       49.84626       54.82980
N         76.37842       49.92787       57.38382
C         75.21358       50.73029       57.72949
C         74.33177       49.94167       58.71009
O         74.52564       48.73743       58.80419
C         74.49715       51.04887       56.41536
H         76.21616       48.98903       56.99046
H         75.54833       51.68348       58.16074
H         73.63174       51.72080       56.55345
H         75.21652       51.55674       55.73120
H         74.16884       50.11005       55.92030
N         73.35328       50.49184       59.49951
C         72.95635       51.89853       59.53513
C         74.11058       52.82379       59.93590
O         75.15472       52.34827       60.36161
C         71.76099       52.11372       60.51972
C         70.55487       51.21891       60.28702
O         70.45964       49.97905       60.82137
O         69.60397       51.65155       59.65899
H         72.84344       49.83792       60.10837
H         72.62355       52.17230       58.51350
H         71.41885       53.16292       60.38700
H         72.07628       52.01191       61.57973
N         73.98994       54.17775       59.80634
C         75.09999       55.08749       60.07101
C         76.16721       54.99312       58.99036
O         75.99955       54.22004       58.05906
H         73.09679       54.57839       59.48511
H         75.54153       54.85724       61.06469
H         74.71376       56.12630       60.08895
N         77.31393       55.73604       59.02403
C         77.61507       56.77172       60.00905
C         78.71975       56.36348       60.97884
O         79.06920       57.16598       61.83223
C         77.95840       58.07879       59.25737
C         76.76509       58.69044       58.55138
N         76.91641       59.82600       57.83344
O         75.65781       58.18010       58.64171
H         78.01396       55.56968       58.28166
H         76.75194       56.97825       60.67319
H         78.76491       57.87549       58.51718
H         78.33135       58.84174       59.97231
H         77.84175       60.26967       57.74515
H         76.10465       60.25945       57.36821
N         79.24547       55.10381       60.97875
C         80.09536       54.62052       62.05905
C         79.27765       54.52146       63.32170
O         79.70495       55.00484       64.36428
H         78.96468       54.42466       60.25936
H         80.99684       55.25970       62.19104
H         80.42977       53.59212       61.81027
N         78.03895       53.95293       63.27266
C         77.13160       53.90096       64.40647
C         76.65370       52.48010       64.55635
O         76.18777       51.91404       63.57377
C         75.91592       54.82983       64.15355
C         75.21143       55.18637       65.46880
O         76.28985       56.01747       63.49928
H         77.69330       53.60541       62.36228
H         77.64598       54.25368       65.32969
H         75.20778       54.29882       63.47905
H         77.08919       56.38293       63.95967
H         75.02083       54.28743       66.09133
H         75.85333       55.88463       66.05234
H         74.24899       55.69529       65.25747
N         76.75475       51.81852       65.73275
C         76.39989       50.41387       65.86634
C         75.32407       50.19526       66.90718
O         74.98812       51.10780       67.65799
C         77.68223       49.57637       66.14442
C         78.61958       49.51019       64.90958
C         78.47955       50.14945       67.33287
C         78.01667       48.74789       63.72653
H         77.12476       52.32431       66.55333
H         75.93114       50.03448       64.93323
H         77.38810       48.53476       66.40021
H         79.54326       48.96965       65.20208
H         78.92338       50.52714       64.57882
H         79.33684       49.48920       67.57594
H         78.90462       51.14595       67.08153
H         77.83905       50.24827       68.23305
H         77.17266       49.29646       63.26510
H         78.79339       48.60355       62.94616
H         77.66156       47.75212       64.05804
N         74.70406       48.98858       66.97418
C         73.59812       48.69286       67.87165
C         73.30544       47.20799       67.88443
O         73.23465       46.57833       66.83356
C         72.30397       49.45795       67.51591
C         71.93558       49.30809       66.06796
O         72.57270       49.90294       65.21430
O         70.90623       48.51997       65.70591
H         75.01889       48.24825       66.32232
H         73.88201       48.97620       68.91044
H         72.38435       50.53946       67.75250
H         71.48625       49.05336       68.15737
N         73.05751       46.59476       69.06739
C         72.77677       45.17620       69.18938
C         74.06612       44.39509       68.92575
O         75.08076       44.74771       69.51265
C         72.27064       44.90884       70.62007
C         71.78730       43.49953       70.82650
C         72.50050       42.63217       71.66448
C         70.60928       43.04731       70.20109
C         72.04886       41.32790       71.87298
C         70.15911       41.74099       70.41598
C         70.87838       40.88269       71.25231
H         73.03867       47.17803       69.92200
H         71.95301       44.90955       68.49270
H         71.41713       45.58543       70.85041
H         73.08825       45.15670       71.33156
H         73.40870       42.96688       72.14914
H         70.04276       43.70538       69.55245
H         72.60667       40.66387       72.51886
H         69.25215       41.39454       69.93666
H         70.52861       39.87310       71.42135
N         74.11448       43.31177       68.08867
C         75.31508       42.52517       67.87993
C         75.98912       42.91032       66.56251
O         76.96283       42.27490       66.17919
C         74.72406       41.12148       67.83383
C         73.44120       41.33375       67.02173
C         72.94147       42.69974       67.50445
H         76.06389       42.62046       68.69724
H         75.39983       40.32870       67.44715
H         74.43400       40.86146       68.87741
H         73.72674       41.41234       65.95298
H         72.69153       40.52101       67.14790
H         72.49011       43.30980       66.68952
H         72.20778       42.52005       68.30092
N         75.52683       43.96700       65.83119
C         76.11166       44.41693       64.57311
C         77.51792       44.96958       64.75025
O         78.16807       45.24160       63.74957
C         75.22143       45.55004       64.01019
C         73.81723       45.03393       63.63495
C         72.83115       46.15240       63.45468
O         71.69939       46.04674       63.90067
O         73.18476       47.26611       62.79528
H         74.71323       44.48573       66.18169
H         76.14080       43.56299       63.85730
H         75.67517       46.02244       63.10928
H         75.15193       46.33340       64.79737
H         73.39458       44.35502       64.40385
H         73.91096       44.44895       62.69615
N         78.05019       45.18614       65.98790
C         79.34491       45.79964       66.16643
H         80.09666       45.36646       65.47423
H         79.25244       46.88647       65.99317
H         79.68409       45.65111       67.21226
H         77.51172       44.96637       66.83508
Ca        71.73501       48.95506       62.38058
O         70.86072       46.91612       60.92141
H         71.18185       46.24346       60.27404
H         69.87433       46.84963       60.91093
O         68.66149       48.37911       62.83019
H         68.07962       48.98660       63.35173
H         68.32669       47.47081       63.03831
O         73.97402       50.26994       62.57634
H         74.37798       49.42443       62.88916
H         74.70377       50.72190       62.09982

Ca 1.70



