%chk=loop2.cluster185.chk
%nprocshared=48
%mem=10GB
%nosave
#b3lyp/svp scf=(tight,noincore) Test 
#IOP(5/87=12) Density=Current Pop=(MK,readradii) iop(6/33=2) iop(6/42=6)

loop2.cluster185 

   -2  1 
C         50.95458       42.77393       17.23739
C         52.05495       42.57073       16.24150
O         52.71136       43.52059       15.83949
H         50.01151       42.36100       16.82067
H         51.20197       42.21361       18.16644
H         50.81470       43.84446       17.48481
N         52.31140       41.31162       15.81371
C         53.40083       40.95424       14.91887
C         53.27785       41.61858       13.54380
O         52.20214       41.61663       12.96257
C         53.43574       39.41074       14.83297
C         54.73559       38.90825       14.33730
O         55.84453       39.34310       14.94055
O         54.78727       38.09486       13.43975
H         51.72466       40.55412       16.19818
H         54.34798       41.28518       15.40695
H         52.58123       39.00934       14.24916
H         53.37943       39.01260       15.86931
N         54.37664       42.18852       12.96695
C         54.38499       42.89633       11.68389
C         55.21221       42.17453       10.61907
O         54.91372       42.31259        9.44125
C         54.99528       44.28613       11.90302
H         55.25828       42.11983       13.47798
H         53.35098       43.02517       11.29404
H         54.98829       44.87898       10.96349
H         54.42618       44.83804       12.67943
H         56.05135       44.19112       12.24504
N         56.27220       41.39309       10.97412
C         57.13858       40.69689       10.02098
C         56.75044       39.23618        9.85203
O         57.14068       38.63273        8.86050
C         58.61966       40.86083       10.45399
C         58.94940       40.36042       11.85086
O         58.12351       39.77212       12.52675
O         60.16473       40.60174       12.37330
H         56.46940       41.28049       11.96724
H         57.01211       41.15304        9.01320
H         58.84838       41.94621       10.43681
H         59.29517       40.35117        9.73323
N         55.98772       38.59897       10.78071
C         55.49668       37.23922       10.61740
C         56.24576       36.20095       11.43137
O         55.84965       35.04613       11.38720
H         55.73825       39.10627       11.63441
H         55.56784       36.91402        9.55889
H         54.41694       37.22943       10.88475
N         57.36940       36.51158       12.14755
C         58.19887       35.47344       12.75971
C         57.73089       35.06060       14.15970
O         58.35981       34.20491       14.77097
C         59.69560       35.83721       12.67049
C         60.17974       36.84532       13.67528
N         61.50020       36.92677       13.95430
O         59.38855       37.54685       14.28217
H         57.72085       37.47169       12.13770
H         58.13013       34.56547       12.12035
H         59.96061       36.16687       11.63780
H         60.26004       34.90077       12.86034
H         62.17242       36.30422       13.48090
H         61.84155       37.57539       14.67783
N         56.57521       35.55907       14.68398
C         55.91208       35.00247       15.84756
C         56.40572       35.42998       17.21035
O         55.78441       35.01825       18.17658
H         56.03608       36.22796       14.12989
H         55.88885       33.89371       15.76864
H         54.85623       35.35040       15.81684
N         57.48550       36.24879       17.39063
C         57.87421       36.70639       18.73183
C         58.02570       38.20727       18.75363
O         58.55136       38.77290       17.81465
C         59.14094       36.01917       19.24850
C         58.97026       34.49694       19.22700
O         60.25755       36.39307       18.48983
H         58.04348       36.54756       16.57974
H         57.08957       36.44155       19.47442
H         59.27168       36.35830       20.30596
H         61.05109       36.07923       18.99738
H         58.05466       34.19592       19.78150
H         58.89075       34.13874       18.17854
H         59.84645       34.01434       19.70334
N         57.55347       38.91950       19.81038
C         57.50876       40.37437       19.77766
C         58.92493       40.91718       19.87039
O         59.57497       40.71250       20.88569
C         56.63074       40.97306       20.92886
C         55.26579       40.24273       21.09777
C         56.36821       42.47184       20.63198
C         54.56745       40.59729       22.41122
H         57.18380       38.40570       20.61444
H         57.01571       40.66439       18.82213
H         57.19227       40.85888       21.88230
H         55.37965       39.14865       21.17010
H         54.61299       40.44196       20.22239
H         55.78661       42.57441       19.68666
H         55.78942       42.96852       21.43386
H         57.31206       43.03640       20.51421
H         53.60901       40.04111       22.47442
H         55.20455       40.28091       23.26792
H         54.35161       41.67726       22.50069
N         59.44200       41.66723       18.86036
C         60.70681       42.38382       18.98419
C         60.37449       43.84079       19.22183
O         59.21084       44.19485       19.20302
C         61.64670       42.06040       17.80441
C         60.99658       42.20744       16.45658
O         60.70352       43.30776       16.02218
O         60.71879       41.10792       15.72923
H         58.86423       41.84573       18.03101
H         61.24466       42.07534       19.90773
H         61.92996       40.99144       17.91674
H         62.58729       42.65406       17.85120
N         61.33705       44.70734       19.62357
C         60.99373       45.99836       20.22056
C         60.19180       46.92647       19.29421
O         59.20670       47.47752       19.77145
C         62.24889       46.60918       20.87913
C         61.98841       47.71178       21.88153
C         62.57103       48.97509       21.70269
C         61.22626       47.46409       23.04307
C         62.40296       49.97260       22.66865
C         61.06173       48.46619       24.00562
C         61.65321       49.71765       23.82018
H         62.31497       44.38348       19.65156
H         60.31965       45.76315       21.07437
H         62.96821       46.92254       20.09754
H         62.73980       45.80561       21.47528
H         63.17001       49.17957       20.82523
H         60.78019       46.49272       23.21682
H         62.86612       50.94023       22.53000
H         60.48758       48.26828       24.90281
H         61.53705       50.48779       24.57226
N         60.46913       47.11018       17.95890
C         59.63049       47.90458       17.06377
C         58.15005       47.52844       17.08953
O         57.30764       48.41122       17.08031
C         60.22058       47.60195       15.67865
C         61.68325       47.37026       15.99933
C         61.60312       46.52648       17.27313
H         59.76053       48.98125       17.31191
H         59.83018       46.63032       15.29859
H         60.01521       48.38647       14.91729
H         62.28130       46.92387       15.17602
H         62.12347       48.35896       16.26407
H         61.37376       45.46820       17.04068
H         62.56005       46.61675       17.82306
N         57.77426       46.21902       17.12125
C         56.37399       45.78649       17.19352
C         55.77855       46.23958       18.51186
O         54.74300       46.89254       18.50914
C         56.29959       44.25402       16.98873
C         56.78188       43.94704       15.55314
C         57.18073       42.54034       15.26336
O         57.53662       42.25513       14.13307
O         57.27822       41.61067       16.22051
H         58.51430       45.50208       17.12690
H         55.78884       46.23958       16.36116
H         55.25287       43.88301       17.09773
H         56.92803       43.75005       17.75091
H         57.70199       44.51206       15.31532
H         55.99001       44.27709       14.84482
N         56.43168       45.99937       19.68042
C         55.98519       46.54506       20.94106
H         54.97480       46.16556       21.19319
H         56.69655       46.25734       21.74544
H         55.96965       47.65533       20.87870
H         57.30686       45.46725       19.66808
Ca        57.96926       39.64254       15.40718

Ca 1.70



