%chk=loop2.cluster237.chk
%nprocshared=48
%mem=10GB
%nosave
#b3lyp/svp scf=(tight,noincore) Test 
#IOP(5/87=12) Density=Current Pop=(MK,readradii) iop(6/33=2) iop(6/42=6)

loop2.cluster237 

   -2  1 
C         51.44937       44.41373       16.45479
C         52.06162       44.71582       15.11856
O         51.48552       44.37838       14.09386
H         50.46215       43.91699       16.34874
H         52.12984       43.74607       17.02517
H         51.31869       45.35962       17.02215
N         53.25872       45.36159       15.06790
C         53.94714       45.69141       13.82369
C         53.10859       46.63651       12.99064
O         52.72000       47.68778       13.48146
C         55.30578       46.32828       14.15270
C         56.09377       46.67029       12.92133
O         56.40841       45.79672       12.12892
O         56.46491       47.94440       12.69466
H         53.70149       45.62283       15.96244
H         54.13849       44.74957       13.26068
H         55.89452       45.60859       14.76116
H         55.14268       47.24785       14.75651
N         52.75184       46.28632       11.72437
C         51.79418       47.05119       10.94729
C         50.49393       46.28252       10.96494
O         50.52628       45.05944       10.93891
C         52.28068       47.28788        9.51245
H         53.07156       45.38085       11.34584
H         51.63866       48.04862       11.39720
H         51.49643       47.80909        8.91961
H         53.18120       47.93631        9.51907
H         52.51414       46.33257        8.99899
N         49.28776       46.90494       11.01437
C         49.11995       48.35755       10.91454
C         49.40227       49.10023       12.21512
O         49.40223       48.50239       13.28097
C         47.75510       48.71025       10.29502
C         46.63062       47.91037       10.88664
O         46.01610       47.12822       10.17692
O         46.36711       47.94116       12.20209
H         48.45852       46.29334       11.00898
H         49.85136       48.74854       10.17870
H         47.80679       48.43711        9.21623
H         47.55857       49.80164       10.35328
N         49.76291       50.41706       12.16203
C         50.15442       51.18795       13.33222
C         49.76354       52.64756       13.15547
O         50.52307       53.37909       12.53806
H         49.87168       50.85689       11.23515
H         51.26237       51.16366       13.40370
H         49.79982       50.73563       14.28137
N         48.56739       53.14789       13.57936
C         47.57229       52.32199       14.23574
C         47.96034       51.99157       15.66630
O         48.88617       52.56414       16.22496
C         46.16469       52.95318       14.14595
C         45.77894       53.15551       12.69788
N         45.46902       54.38640       12.23011
O         45.75565       52.19686       11.93907
H         48.33193       54.12579       13.34693
H         47.51067       51.36124       13.67820
H         46.13846       53.91633       14.70067
H         45.41052       52.27641       14.60379
H         45.47367       55.20436       12.85587
H         45.22254       54.51729       11.23764
N         47.28581       50.99611       16.28185
C         47.59815       50.50214       17.61872
C         46.66083       49.39393       18.11175
O         46.69066       49.10953       19.30073
H         46.52853       50.60042       15.73500
H         47.47870       51.35731       18.32025
H         48.65288       50.15371       17.67563
N         45.75274       48.78009       17.28808
C         44.63577       47.99195       17.76752
C         44.50764       46.69683       17.01610
O         44.56538       46.69162       15.79302
C         43.32655       48.78437       17.54621
C         43.16096       49.89941       18.58390
O         43.21929       49.27664       16.22672
H         45.75961       48.93183       16.27992
H         44.71010       47.77192       18.85412
H         42.47505       48.09267       17.72217
H         43.65971       50.16840       16.18119
H         42.15046       50.34442       18.47796
H         43.24610       49.46800       19.60456
H         43.93149       50.68889       18.46300
N         44.22291       45.55616       17.69724
C         43.96716       44.30924       17.00626
C         42.70453       44.32949       16.15024
O         41.70599       44.92850       16.52823
C         43.91623       43.07407       17.94185
C         45.32847       42.73324       18.46441
C         42.88393       43.17451       19.08456
C         45.41736       41.29393       18.95019
H         44.17666       45.58468       18.72604
H         44.81635       44.13390       16.31763
H         43.60760       42.24344       17.26904
H         45.67271       43.44432       19.24975
H         46.03916       42.80646       17.61446
H         42.66741       42.16137       19.48293
H         43.26346       43.80143       19.91971
H         41.92471       43.60751       18.73491
H         44.89781       41.15176       19.91746
H         44.96080       40.62388       18.19149
H         46.48632       41.01812       19.05737
N         42.66012       43.51645       15.05364
C         41.43579       43.14552       14.36384
C         41.55828       41.69721       13.89190
O         42.41552       41.39811       13.07131
C         41.09494       44.08592       13.19331
C         42.13696       44.16390       12.10798
O         43.16296       45.02751       12.20773
O         41.91959       43.63586       11.02903
H         43.49676       42.95454       14.85429
H         40.58475       43.20244       15.07946
H         40.87745       45.11463       13.55141
H         40.15186       43.70285       12.74013
N         40.73306       40.73932       14.39898
C         40.77964       39.33919       13.98119
C         42.11719       38.67307       14.29321
O         42.51000       38.66816       15.45717
C         39.68733       38.53509       14.72683
C         39.70647       37.06846       14.34602
C         40.47985       36.15297       15.08670
C         38.97880       36.61164       13.23658
C         40.52777       34.80704       14.71586
C         39.02197       35.25998       12.87604
C         39.79810       34.36008       13.61267
H         40.02580       41.02240       15.09502
H         40.54133       39.29357       12.89841
H         38.68223       38.96480       14.52741
H         39.85709       38.62652       15.82321
H         41.05647       36.48502       15.94097
H         38.38134       37.30138       12.65463
H         41.13316       34.11103       15.28297
H         38.45691       34.91012       12.02246
H         39.83533       33.31643       13.32806
N         42.81955       37.97057       13.34453
C         43.90177       37.05721       13.67261
C         45.19870       37.70396       14.11916
O         46.14432       36.97563       14.37597
C         44.07328       36.24330       12.37900
C         43.63628       37.21754       11.30051
C         42.43875       37.90734       11.94598
H         43.59236       36.35286       14.47829
H         45.07296       35.78048       12.22690
H         43.31272       35.43062       12.38321
H         44.44735       37.97039       11.18388
H         43.42188       36.76293       10.30846
H         42.30551       38.90464       11.47501
H         41.51280       37.29793       11.85942
N         45.31999       39.05423       14.25313
C         46.58577       39.67042       14.64647
C         47.05889       39.23249       16.02713
O         48.23914       39.39470       16.31302
C         46.48815       41.20885       14.58705
C         46.18867       41.70598       13.15907
C         46.16557       43.20450       13.07924
O         45.44824       43.92096       13.95654
O         46.79012       43.78110       12.20502
H         44.51857       39.65482       14.03904
H         47.35742       39.33751       13.91663
H         47.44720       41.65246       14.92931
H         45.67996       41.54156       15.27973
H         45.20183       41.33036       12.82471
H         46.95731       41.32178       12.45331
N         46.21071       38.67771       16.94042
C         46.66959       38.22311       18.23832
H         47.50327       38.85010       18.62279
H         45.83804       38.27711       18.97268
H         47.00572       37.16887       18.16138
H         45.20506       38.59826       16.72760
Ca        44.75390       46.49967       12.81488
O         47.29689       46.38136       14.59122
H         47.74802       46.84171       13.84485
H         47.97418       46.37622       15.31089
O         42.88720       48.33727       13.28381
H         43.51378       48.98538       12.87291
H         42.43673       47.90593       12.51397

Ca 1.70



