%chk=loop4.cluster87.chk
%nprocshared=48
%mem=10GB
%nosave
#b3lyp/svp scf=(tight,noincore) Test 
#IOP(5/87=12) Density=Current Pop=(MK,readradii) iop(6/33=2) iop(6/42=6)

loop4.cluster87 

   -3  1 
C         77.97513       35.73294       68.37743
C         78.79945       34.89888       69.32450
O         79.98819       34.73707       69.09967
H         76.95392       35.90693       68.78095
H         78.45158       36.72893       68.24665
H         77.88849       35.23545       67.39054
N         78.21639       34.36148       70.43307
C         78.94124       33.67207       71.50165
C         79.90046       34.61303       72.20260
O         80.96253       34.17550       72.63797
C         79.63758       32.35686       71.07289
C         78.67038       31.30367       70.62926
O         78.05884       31.42514       69.58099
O         78.48399       30.20806       71.39140
H         77.20359       34.49799       70.56741
H         78.18536       33.40324       72.27319
H         80.15570       31.94920       71.96872
H         80.41219       32.52467       70.29302
N         79.56612       35.91658       72.41100
C         80.41814       36.84599       73.13469
C         79.66555       37.31638       74.38009
O         78.55191       37.80806       74.22980
C         80.81338       38.05114       72.22948
C         81.48048       37.62969       70.89179
C         81.72469       39.03377       72.99151
C         82.73538       36.76341       71.02362
H         78.66472       36.26871       72.04408
H         81.36234       36.34867       73.41924
H         79.89009       38.60875       71.95512
H         81.75177       38.54965       70.32771
H         80.74894       37.07225       70.27084
H         81.96807       39.91036       72.35572
H         81.21596       39.41454       73.90123
H         82.67318       38.55037       73.30180
H         83.52072       37.25425       71.63184
H         82.49842       35.77647       71.46344
H         83.13899       36.58716       70.00845
N         80.18826       37.26012       75.64425
C         81.54480       36.79251       75.92821
C         81.62499       35.27217       75.90448
O         82.72112       34.75093       75.78654
C         82.07675       37.30603       77.28589
C         81.73552       38.74825       77.55614
O         81.04083       39.06922       78.66575
O         82.06460       39.62525       76.77383
H         79.63131       37.65307       76.41593
H         82.21863       37.24996       75.17518
H         83.18417       37.18374       77.30041
H         81.65152       36.70218       78.11413
N         80.50892       34.50344       76.11146
C         80.47808       33.04200       76.13192
C         81.44644       32.42665       77.12395
O         81.53497       32.88743       78.25199
H         79.61087       34.98004       76.28065
H         80.68489       32.65142       75.11211
H         79.45090       32.72455       76.40746
N         82.25157       31.40053       76.71742
C         83.42968       30.96585       77.46365
C         84.66927       31.63814       76.87122
O         85.75919       31.42907       77.39046
C         83.59150       29.41750       77.46621
C         83.44754       28.75593       76.11993
O         82.65215       27.67844       75.98094
O         84.05871       29.17300       75.15646
H         82.14247       31.05180       75.75410
H         83.37692       31.29817       78.52441
H         82.85260       28.94570       78.14615
H         84.60088       29.17653       77.86894
N         84.57813       32.49317       75.80812
C         85.72746       33.13007       75.19709
C         86.44512       32.17926       74.26247
O         87.61499       32.38104       73.98108
H         83.66615       32.68759       75.38112
H         86.38476       33.58033       75.97249
H         85.36634       33.96802       74.56117
N         85.75494       31.15140       73.68778
C         86.30044       30.18191       72.74712
C         86.64639       30.82157       71.41845
O         87.73392       30.61365       70.89447
C         87.43951       29.32680       73.34397
C         86.98396       28.52942       74.57711
C         87.96376       27.45378       74.97746
N         87.63047       26.56865       75.94419
O         89.04005       27.34799       74.40665
H         84.75562       31.05574       73.90332
H         85.47153       29.48017       72.50089
H         88.33380       29.93902       73.58986
H         87.72157       28.59186       72.55882
H         86.04551       28.00183       74.31486
H         86.79077       29.21189       75.43646
H         86.71644       26.62926       76.41695
H         88.27565       25.80519       76.19542
N         85.71665       31.59654       70.79507
C         85.92083       32.16236       69.46475
C         85.77350       31.11964       68.36229
O         85.08265       30.12632       68.54089
C         85.01732       33.39312       69.17193
C         83.52098       33.17172       69.48717
C         85.52939       34.62873       69.91936
H         84.84460       31.78919       71.30175
H         86.97341       32.52160       69.40355
H         85.12682       33.61730       68.08752
H         83.13536       32.25350       68.99934
H         83.33715       33.09333       70.58061
H         82.92453       34.04093       69.14326
H         86.61673       34.76987       69.73975
H         85.02423       35.52982       69.52373
H         85.35298       34.54414       71.01223
N         86.47263       31.28683       67.19854
C         86.50790       30.31366       66.11051
C         86.27334       30.98799       64.77055
O         86.96808       31.94312       64.44978
C         87.88384       29.62580       66.13498
C         88.15909       28.76100       64.92362
N         87.23354       27.89298       64.45052
O         89.23042       28.87090       64.34640
H         87.08923       32.11037       67.11839
H         85.74175       29.52249       66.25820
H         87.92030       29.00542       67.05580
H         88.69402       30.38656       66.20752
H         86.30645       27.81070       64.88908
H         87.43435       27.33247       63.60951
N         85.31384       30.51344       63.91917
C         85.04324       31.15341       62.63597
C         83.65777       30.74902       62.12398
O         83.49716       30.43168       60.95202
C         86.16692       30.78447       61.62495
C         86.19849       31.76156       60.48704
C         86.56984       33.08848       60.74822
C         85.86502       31.37781       59.17880
C         86.59011       34.02943       59.72255
C         85.87625       32.32677       58.15100
C         86.23581       33.65733       58.42312
O         86.24159       34.58313       57.44440
H         84.73758       29.71178       64.21550
H         84.99993       32.24629       62.83704
H         86.01153       29.73480       61.28130
H         87.17316       30.81100       62.09559
H         86.84524       33.38823       61.75246
H         85.58060       30.35562       58.95934
H         86.87572       35.04994       59.94175
H         85.60141       32.03113       57.14672
H         85.98790       34.36375       56.53732
N         82.61797       30.66594       63.00204
C         81.32635       30.08595       62.65433
C         80.46180       31.01040       61.78381
O         80.01920       30.53819       60.74653
C         80.67916       29.45171       63.91706
C         79.38260       28.68271       63.61485
C         79.03456       27.67511       64.69617
O         79.10541       26.48538       64.43463
O         78.63203       28.04236       65.93347
H         82.80182       30.87656       63.99480
H         81.52829       29.18093       62.02987
H         80.52344       30.17776       64.73669
H         81.42797       28.70137       64.27033
H         79.54485       28.10271       62.68093
H         78.54729       29.38209       63.42100
N         80.20991       32.33424       62.04710
C         80.64896       33.05765       63.23190
C         81.88109       33.91205       62.95421
O         82.29146       34.05200       61.80863
C         79.54901       34.05618       63.68982
C         78.10268       33.56027       63.79214
C         77.92319       32.34715       64.62770
O         77.33626       31.38589       64.15983
O         78.40520       32.26909       65.87490
H         79.68364       32.86601       61.33532
H         80.88809       32.34030       64.03845
H         79.50094       34.89000       62.95115
H         79.84994       34.49267       64.66526
H         77.71057       33.33563       62.77543
H         77.49456       34.38375       64.21872
N         82.49142       34.55827       63.98901
C         83.57765       35.49645       63.80081
H         84.43381       35.01858       63.28234
H         83.22131       36.37336       63.21741
H         83.92046       35.86568       64.79251
H         82.15743       34.39171       64.94963
Ca        78.25693       30.15952       66.54231
O         77.81863       28.27768       68.87913
H         77.07253       27.63137       68.80516
H         78.25717       28.05627       69.73823
O         80.70654       30.48191       67.50694
H         80.97706       31.31878       67.05219
H         81.37465       30.33735       68.21904
O         75.55894       28.90255       66.30591
H         75.12419       28.01448       66.25939
H         74.81064       29.54496       66.39228

Ca 1.70



