%chk=loop1.cluster43.chk
%nprocshared=48
%mem=10GB
%nosave
#b3lyp/svp scf=(tight,noincore) Test 
#IOP(5/87=12) Density=Current Pop=(MK,readradii) iop(6/33=2) iop(6/42=6)

loop1.cluster43 

   0  1 
C         38.44418       -7.71991       36.65890
C         38.96964       -8.94026       37.35101
O         39.46300       -9.84790       36.70171
H         37.40264       -7.52149       36.99250
H         39.07733       -6.85367       36.94672
H         38.45866       -7.83534       35.55637
N         38.84561       -9.02996       38.69815
C         39.33668      -10.14135       39.50652
C         38.18329      -11.01785       39.97091
O         38.35335      -11.79154       40.90396
C         40.14466       -9.57322       40.70500
C         39.35865       -8.70063       41.65945
O         38.89388       -7.63151       41.29629
O         39.22554       -9.07478       42.94477
H         38.30899       -8.28792       39.16349
H         40.02419      -10.79837       38.93014
H         41.00506       -8.98450       40.32293
H         40.55259      -10.42687       41.28791
N         36.96755      -10.93960       39.35335
C         35.77405      -11.59685       39.84915
C         35.05534      -12.42121       38.75344
O         34.04257      -11.94173       38.26157
C         34.85816      -10.46453       40.36000
C         35.40526       -9.81385       41.64378
C         34.55771       -8.58904       41.99785
C         34.93077       -7.92514       43.33160
N         36.31424       -7.45475       43.35955
H         36.84923      -10.31899       38.54041
H         35.97262      -12.20553       40.73573
H         33.84855      -10.86299       40.59841
H         34.75385       -9.70146       39.55417
H         36.45784       -9.49407       41.50210
H         35.37070      -10.56431       42.46595
H         33.49184       -8.89496       42.06328
H         34.66172       -7.84378       41.17889
H         34.76223       -8.63395       44.17231
H         34.25200       -7.05561       43.46938
H         36.95699       -8.27340       43.40487
H         36.52372       -6.87020       42.51810
H         36.46335       -6.87915       44.21938
N         35.42466      -13.68237       38.33382
C         36.56212      -14.48654       38.78051
C         36.52450      -14.84841       40.26056
O         35.65026      -14.38255       40.97592
C         37.88287      -13.84316       38.28146
C         38.41097      -14.53980       37.06387
O         39.71152      -14.85995       36.99915
O         37.67098      -14.81317       36.13160
H         34.82122      -14.12475       37.62218
H         36.46300      -15.48215       38.29154
H         38.67307      -13.82711       39.05763
H         37.72081      -12.79644       37.98146
N         37.39131      -15.74315       40.81190
C         38.30724      -16.56643       40.02720
C         39.11607      -17.47201       40.92441
O         38.57909      -17.93589       41.91918
H         37.33231      -15.89349       41.82994
H         38.95739      -15.95075       39.41115
H         37.71506      -17.21202       39.34772
N         40.41081      -17.81584       40.66875
C         41.21536      -17.43676       39.49703
C         41.36951      -15.88658       39.29388
O         42.39867      -15.58373       38.35350
C         42.57320      -18.20604       39.58389
C         43.29789      -18.09676       40.91013
O         43.69634      -17.02724       41.32587
O         43.48546      -19.19933       41.65952
H         40.84678      -18.43747       41.36833
H         40.70774      -17.80630       38.58063
H         43.24984      -17.93174       38.74922
H         42.33276      -19.28609       39.46008
N         41.58580      -15.20412       40.58979
C         41.56837      -13.73637       40.50092
C         42.94800      -13.19964       40.22916
O         43.10170      -11.99295       40.09437
H         40.84976      -15.48313       41.27250
H         41.20772      -13.30880       41.46277
H         40.87201      -13.39592       39.70151
N         44.00161      -14.05547       40.08161
C         45.29099      -13.66961       39.55998
C         45.06931      -13.05701       38.21368
O         44.35982      -13.62004       37.38587
C         46.26211      -14.87344       39.46911
C         47.54890      -14.49551       38.73001
O         45.68322      -15.95071       38.78505
H         43.85303      -15.04460       40.24460
H         45.75784      -12.92541       40.24267
H         46.53202      -15.17971       40.50768
H         45.23631      -16.53023       39.45014
H         47.32027      -14.26364       37.66495
H         48.02683      -13.60816       39.19359
H         48.25377      -15.35030       38.74000
N         45.59653      -11.84531       37.96401
C         45.27041      -11.07069       36.79939
C         46.55338      -10.54681       36.20338
O         47.18576       -9.66463       36.77513
C         44.22102      -10.00527       37.21529
C         43.89070       -9.06357       36.04266
C         44.61547       -9.25790       38.51177
C         42.78523       -8.06983       36.39333
H         46.19663      -11.41358       38.68555
H         44.77337      -11.71236       36.03142
H         43.29063      -10.56558       37.46802
H         43.54175       -9.68589       35.18946
H         44.79303       -8.50039       35.72098
H         44.72187       -9.96910       39.35778
H         45.56096       -8.69666       38.39445
H         43.81317       -8.57508       38.84408
H         43.14109       -7.33925       37.14871
H         42.49156       -7.50164       35.48911
H         41.89930       -8.60756       36.79093
N         47.05020      -11.12770       35.08490
C         48.29872      -10.74037       34.45199
C         48.15591      -10.77835       32.93431
O         49.15722      -10.74271       32.23926
C         49.42676      -11.68444       34.94643
C         49.18793      -13.15080       34.57293
O         49.54647      -11.60137       36.34452
H         46.55772      -11.96038       34.71618
H         48.60217       -9.70792       34.74321
H         50.39204      -11.37441       34.48465
H         49.77432      -10.66053       36.56622
H         49.11845      -13.27284       33.47306
H         50.03761      -13.76536       34.93574
H         48.25768      -13.53367       35.04201
N         46.91226      -10.85440       32.36289
C         46.64707      -11.03436       30.94497
C         47.00768      -12.43530       30.48772
O         47.74138      -13.15075       31.15744
C         47.32460       -9.96800       30.03509
C         47.12897       -8.53795       30.56609
O         46.84045      -10.09695       28.71455
H         46.07868      -10.77896       32.95841
H         45.54123      -10.94763       30.83901
H         48.41625      -10.16445       30.01309
H         46.73726       -9.20684       28.28997
H         47.73196       -7.84159       29.94463
H         46.06093       -8.24347       30.52026
H         47.49330       -8.44390       31.60895
N         46.49885      -12.87247       29.31163
C         46.89332      -14.08330       28.63583
C         45.84387      -15.18178       28.43989
O         46.28378      -16.21822       27.95656
C         47.44211      -13.63721       27.25263
C         48.94636      -13.38857       27.31528
C         49.46066      -12.78679       26.00606
C         50.98465      -12.91209       25.93385
N         51.49025      -12.41586       24.65694
H         45.88757      -12.23810       28.80585
H         47.68993      -14.60908       29.21144
H         46.89851      -12.72917       26.89754
H         47.28173      -14.40761       26.46797
H         49.40755      -14.38886       27.47520
H         49.22885      -12.72460       28.16108
H         49.14246      -11.72073       25.93745
H         49.03032      -13.33918       25.14348
H         51.25484      -13.98856       26.02677
H         51.45724      -12.35645       26.77358
H         52.52546      -12.55714       24.62590
H         51.05571      -12.95137       23.86972
H         51.27532      -11.39806       24.55532
N         44.49780      -15.16005       28.72067
C         43.60767      -14.11804       29.24225
C         43.62702      -12.82256       28.45896
O         43.60053      -11.75789       29.06352
C         43.60866      -13.96854       30.80356
C         43.35373      -15.33514       31.48024
C         42.86717      -15.41441       32.92984
O         42.87411      -14.38680       33.81564
O         42.44595      -16.49060       33.31663
H         44.00311      -16.03307       28.46866
H         42.58612      -14.50550       29.02106
H         42.74841      -13.30623       31.04379
H         44.53387      -13.49808       31.19016
H         44.26570      -15.96625       31.37664
H         42.55359      -15.83002       30.89233
N         43.65038      -12.82800       27.09655
C         43.67582      -11.59080       26.34324
H         42.80496      -10.96181       26.62488
H         44.61414      -11.03217       26.55540
H         43.62499      -11.80077       25.25423
H         43.65433      -13.72299       26.58341
Ca        42.24501      -14.98097       36.02557
O         39.99909      -13.83851       33.65365
H         39.49351      -13.67958       32.81792
H         39.40052      -13.51719       34.37289
O         44.75416      -15.99948       35.79185
H         44.95371      -16.48297       36.62825
H         45.63623      -15.77771       35.40708
O         41.28203      -12.21534       36.03172
H         40.97177      -11.85473       36.89919
H         41.15241      -11.47774       35.38422
O         42.07733      -17.83243       36.33665
H         42.07321      -18.68695       36.83261
H         41.44440      -17.98722       35.59633
O         39.44898      -17.10986       34.45877
H         39.62829      -16.43902       33.75538
H         39.36344      -16.57993       35.28737

Ca 1.70



