%chk=loop3.cluster165.chk
%nprocshared=48
%mem=10GB
%nosave
#b3lyp/svp scf=(tight,noincore) Test 
#IOP(5/87=12) Density=Current Pop=(MK,readradii) iop(6/33=2) iop(6/42=6)

loop3.cluster165 

   0  1 
C         94.47463       60.45011       28.07360
C         95.17120       59.12738       28.18362
O         95.19547       58.55293       29.26239
H         93.43725       60.37412       28.45892
H         95.03824       61.19801       28.66949
H         94.43835       60.79730       27.01922
N         95.82661       58.61518       27.10584
C         96.61660       57.39619       27.16970
C         98.08240       57.76386       27.38067
O         98.53531       58.77278       26.86186
C         96.36869       56.55355       25.91703
C         97.19728       55.31258       25.97234
O         97.06397       54.46141       27.00645
O         98.02963       55.09800       25.11059
H         95.86243       59.17071       26.23767
H         96.29613       56.77805       28.03992
H         96.61535       57.13888       25.00447
H         95.29396       56.26712       25.87036
N         98.82259       57.05391       28.28234
C        100.07015       57.56572       28.85706
C        101.32965       57.45238       28.01343
O        102.33752       58.00679       28.43422
C        100.29992       56.97446       30.26484
C        100.47273       55.44293       30.33214
C        100.57290       55.00733       31.80431
C        100.35023       53.50147       32.00758
N        101.46702       52.69299       31.52732
H         98.36833       56.24538       28.72414
H         99.91275       58.65360       29.03159
H         99.40714       57.24746       30.87068
H        101.18227       57.46586       30.72936
H        101.35734       55.10384       29.75074
H         99.57429       54.95850       29.90454
H         99.75055       55.50473       32.36174
H        101.53707       55.33924       32.25062
H         99.40600       53.19598       31.50168
H        100.22089       53.31317       33.09586
H        102.32969       52.93547       32.06646
H        101.24148       51.68526       31.69490
H        101.62502       52.84021       30.50585
N        101.36506       56.81085       26.81167
C        102.56896       56.81741       25.97614
C        102.44587       57.81013       24.82270
O        103.39798       57.93800       24.06255
C        102.95431       55.39342       25.49959
C        101.85538       54.62683       24.82104
O        101.12608       55.17046       24.01806
O        101.69605       53.31527       25.07464
H        100.50503       56.37984       26.44223
H        103.45042       57.18462       26.54890
H        103.30178       54.78148       26.35862
H        103.81721       55.47466       24.80150
N        101.34026       58.60255       24.65872
C        101.25376       59.60156       23.60157
C        101.16871       59.01040       22.20121
O        101.24433       59.75789       21.24102
H        100.55862       58.53859       25.32356
H        102.13753       60.27208       23.68145
H        100.34475       60.22363       23.75010
N        100.97691       57.67315       22.02306
C        100.88701       57.01369       20.72654
C         99.51286       56.36333       20.62729
O         99.14601       55.60290       21.50521
C        102.06262       56.02129       20.62015
C        102.09581       55.27724       19.31006
N        103.03326       55.55491       18.37683
O        101.27801       54.40327       19.09366
H        100.87047       57.08644       22.84667
H        101.00635       57.74271       19.89792
H        102.06347       55.29228       21.45780
H        102.99239       56.62220       20.71552
H        103.72969       56.29636       18.53394
H        103.04378       55.03748       17.48489
N         98.66914       56.68907       19.60494
C         97.27499       56.25682       19.57723
C         97.03388       54.77519       19.35163
O         95.88107       54.36597       19.41284
H         98.99114       57.34109       18.87678
H         96.75508       56.78958       18.75121
H         96.79620       56.57057       20.52925
N         98.03934       53.91899       19.01555
C         97.78708       52.52777       18.64845
C         97.64838       51.62281       19.86412
O         98.04306       51.99857       20.95750
C         98.87570       51.99716       17.69481
C         98.83361       52.65894       16.33143
C         98.11049       52.05623       15.28631
C         99.53173       53.85316       16.07844
C         98.08843       52.63503       14.01338
C         99.51055       54.42811       14.80292
C         98.78913       53.81913       13.76615
O         98.76625       54.36213       12.53154
H         98.97692       54.30088       18.88439
H         96.81820       52.47720       18.10044
H         98.71828       50.90798       17.54190
H         99.88559       52.09928       18.14816
H         97.56471       51.13694       15.45879
H        100.10238       54.33344       16.85705
H         97.53027       52.15949       13.21636
H        100.06015       55.34289       14.61870
H         99.23890       55.18161       12.32630
N         97.01582       50.41733       19.72358
C         96.66675       49.51364       20.82075
C         97.83223       48.72602       21.39323
O         98.99193       49.08423       21.23880
C         95.70958       50.21312       21.86726
C         95.74724       49.64952       23.31699
C         94.27893       50.19440       21.30711
C         94.88188       50.44678       24.30054
H         96.68258       50.15698       18.78300
H         96.08847       48.68820       20.34603
H         96.03204       51.26541       21.98130
H         96.79615       49.72188       23.67407
H         95.41866       48.59548       23.37676
H         94.25704       50.60954       20.27898
H         93.90683       49.14553       21.27870
H         93.58945       50.79682       21.92953
H         93.80346       50.26722       24.11304
H         95.09989       50.12258       25.34026
H         95.09108       51.53473       24.21989
N         97.53101       47.56078       22.03338
C         98.46855       46.66293       22.68436
C         98.35389       45.21241       22.17319
O         99.27970       44.44556       22.38564
C         98.13699       46.70728       24.18605
O         96.77266       46.43462       24.37416
H         96.53516       47.32093       22.09755
H         99.51788       47.00481       22.54056
H         98.35092       47.73864       24.54896
H         98.74909       45.97921       24.75875
H         96.52577       46.77407       25.27281
N         97.19663       44.74696       21.60199
C         96.95288       43.35531       21.22074
C         97.23790       42.35191       22.34475
O         98.06093       41.46425       22.14677
C         97.66032       43.02486       19.90490
H         96.40071       45.37821       21.48208
H         95.86904       43.25747       20.97865
H         97.36122       42.00616       19.57018
H         97.32763       43.74211       19.12304
H         98.76221       43.07320       20.00374
N         96.56027       42.35214       23.53400
C         95.55073       43.34314       23.89114
C         94.16353       42.73244       23.81637
O         94.06151       41.51805       23.79874
C         95.83750       43.85226       25.31124
H         96.74190       41.58928       24.20309
H         95.59262       44.17092       23.19087
H         95.69097       43.03880       26.05324
H         96.88705       44.19949       25.39820
H         95.17446       44.69276       25.58474
N         93.02240       43.48935       23.79530
C         92.96984       44.94870       23.73618
C         92.10121       45.45041       22.58279
O         92.40915       46.49073       22.02190
C         92.44693       45.47611       25.07735
C         92.71708       46.97710       25.26383
C         92.43849       47.36394       26.68330
O         91.29548       47.58954       27.04377
O         93.41861       47.25834       27.60265
H         92.13376       42.97228       23.85668
H         93.97640       45.38921       23.60950
H         93.00725       44.94845       25.87636
H         91.37131       45.23075       25.20749
H         92.13321       47.60550       24.55711
H         93.79600       47.17655       25.07495
N         90.94985       44.79447       22.23639
C         90.03090       45.28033       21.22793
H         89.06485       45.50432       21.72691
H         90.38900       46.19787       20.71906
H         89.85766       44.49058       20.46580
H         90.68249       43.92992       22.71626
Ca        99.08040       53.46227       23.20715
O         96.48179       54.09068       22.46529
H         96.50888       54.95035       22.95450
H         95.52079       53.90587       22.32800
O         97.61537       51.93575       25.03359
H         97.92027       51.03255       25.29207
H         97.50879       52.39895       25.89609
O        101.10581       52.89501       21.46013
H        100.97120       52.23675       20.73450
H        102.00359       52.70005       21.82667
O        100.14901       51.01945       23.76309
H         99.43195       50.63851       23.19746
H        100.74424       50.26020       23.97231

Ca 1.70



