%chk=loop1.cluster105.chk
%nprocshared=48
%mem=10GB
%nosave
#b3lyp/svp scf=(tight,noincore) Test 
#IOP(5/87=12) Density=Current Pop=(MK,readradii) iop(6/33=2) iop(6/42=6)

loop1.cluster105 

   0  1 
C         69.05269       51.56627       10.24216
C         69.04400       50.32699        9.41826
O         67.97998       49.79366        9.16524
H         69.48824       52.39487        9.64608
H         68.01906       51.83423       10.54636
H         69.66831       51.38669       11.14687
N         70.21602       49.83145        8.93940
C         70.32314       48.63663        8.11341
C         70.14627       47.36388        8.94432
O         71.11161       46.67527        9.24701
C         71.65560       48.70278        7.35258
C         71.86946       47.53266        6.46734
O         73.00109       47.13542        6.27501
O         70.82187       46.84867        5.97837
H         71.07644       50.36676        9.13634
H         69.54877       48.65176        7.31565
H         72.51907       48.79778        8.04324
H         71.63631       49.60117        6.70007
N         68.89299       46.99101        9.31156
C         68.55699       45.77999       10.04874
C         68.72632       44.53920        9.19160
O         68.83517       43.45145        9.74174
C         67.09692       45.92005       10.53316
C         67.02494       47.01963       11.61140
C         65.58425       47.37368       11.98480
C         65.50047       48.33557       13.18602
N         66.16644       49.61977       12.94946
H         68.11688       47.58289        9.01362
H         69.22172       45.68324       10.93740
H         66.70713       44.97304       10.96083
H         66.45669       46.18637        9.65855
H         67.52194       47.94401       11.25102
H         67.57286       46.65379       12.50706
H         65.04582       46.44283       12.26246
H         65.07820       47.82438       11.10229
H         65.94904       47.84763       14.07934
H         64.42556       48.52232       13.40163
H         66.03306       50.22535       13.79171
H         67.19441       49.49145       12.81513
H         65.75122       50.09978       12.11874
N         68.74201       44.62055        7.83079
C         69.02546       43.46853        6.98667
C         70.49287       43.07657        7.12219
O         70.82757       41.91136        6.96540
C         68.74394       43.78994        5.50486
C         67.32449       44.23206        5.25962
O         66.29425       43.47294        5.67631
O         67.10153       45.27399        4.66479
H         68.57165       45.52776        7.37918
H         68.35751       42.62286        7.26747
H         68.92810       42.87366        4.90460
H         69.43474       44.58496        5.15839
N         71.42991       44.03977        7.36163
C         72.86208       43.80759        7.38765
C         73.35038       43.46476        6.00279
O         73.99226       42.44295        5.81593
H         71.11594       45.00285        7.50350
H         73.12552       43.04149        8.14676
H         73.35851       44.76063        7.67864
N         73.02614       44.29154        4.97069
C         73.34144       44.03826        3.57164
C         74.09086       45.20074        2.91170
O         74.32692       45.13677        1.71153
C         72.02357       43.67512        2.83831
C         70.88942       44.67188        2.87718
O         71.01890       45.86256        3.47957
O         69.80693       44.35985        2.40978
H         72.45074       45.10758        5.18348
H         73.99487       43.14397        3.47491
H         71.63737       42.75614        3.33173
H         72.23958       43.42996        1.77823
N         74.55531       46.26604        3.63395
C         75.30379       47.36122        3.03640
C         74.43605       48.43950        2.42413
O         74.98472       49.37936        1.87286
H         74.45543       46.26521        4.65381
H         76.05579       46.96873        2.31820
H         75.85985       47.89222        3.83934
N         73.07670       48.40029        2.52901
C         72.23163       49.50739        2.09101
C         71.26778       49.92893        3.18017
O         70.88514       49.13071        4.01107
C         71.42926       49.15911        0.81383
C         72.31684       49.11951       -0.42998
O         70.70462       47.96598        0.95257
H         72.62772       47.59370        2.97129
H         72.84515       50.39969        1.85274
H         70.69709       49.97718        0.63132
H         71.34505       47.22610        1.11926
H         71.68675       48.99036       -1.33571
H         72.85558       50.08770       -0.52440
H         73.05544       48.29502       -0.37089
N         70.75453       51.18649        3.13582
C         69.61654       51.62296        3.93124
C         68.53835       51.99651        2.93712
O         68.76535       52.85724        2.09933
C         69.99572       52.83883        4.81922
C         70.94737       52.39682        5.95529
C         68.72794       53.49750        5.40858
C         71.63748       53.57908        6.63707
H         71.13550       51.84530        2.44315
H         69.23542       50.81529        4.59563
H         70.51168       53.58336        4.17378
H         71.75781       51.76065        5.54385
H         70.38274       51.79694        6.70537
H         68.09125       53.89878        4.59495
H         68.14022       52.75656        5.98877
H         68.96066       54.35873        6.05962
H         72.25330       54.12534        5.89022
H         70.91657       54.28379        7.09549
H         72.30876       53.20352        7.43688
N         67.32042       51.39471        2.99596
C         66.22614       51.78397        2.12948
C         65.45452       52.93501        2.74776
O         65.73208       53.35454        3.86127
C         65.25831       50.59022        1.86621
C         65.96270       49.35768        1.31995
O         64.60635       50.23212        3.04698
H         67.13886       50.70715        3.72518
H         66.63356       52.11529        1.14876
H         64.49955       50.91389        1.12009
H         63.86732       49.61401        2.81032
H         65.20007       48.57685        1.10556
H         66.51203       49.59562        0.38955
H         66.65563       48.95934        2.08690
N         64.42227       53.45846        2.04858
C         63.49967       54.47468        2.53985
C         62.77986       53.95384        3.78064
O         62.71195       54.64360        4.78733
C         62.47160       54.75332        1.40869
C         61.56363       55.93733        1.70607
O         63.14375       55.02764        0.20183
H         64.26663       53.07330        1.11033
H         64.05408       55.41428        2.76805
H         61.82472       53.84963        1.28631
H         63.09591       54.20897       -0.36161
H         61.01167       55.79544        2.65636
H         62.17125       56.86588        1.75960
H         60.83195       56.03963        0.87593
N         62.23996       52.70255        3.75371
C         61.55388       52.06252        4.87437
C         62.47155       51.94426        6.08639
O         62.08638       52.33590        7.17932
C         61.09915       50.65253        4.41005
C         60.14333       49.91372        5.36605
C         58.78281       50.61497        5.56680
C         57.97884       50.77406        4.25852
N         56.76126       51.55268        4.47542
H         62.33689       52.16614        2.87867
H         60.65888       52.66853        5.12728
H         61.99606       50.02136        4.24307
H         60.60803       50.73293        3.42079
H         60.64137       49.78568        6.35088
H         59.95711       48.89987        4.94814
H         58.94167       51.60435        6.03837
H         58.17786       50.00535        6.27447
H         57.72109       49.76478        3.86625
H         58.56590       51.30587        3.48417
H         56.19806       51.15691        5.26122
H         57.01920       52.54489        4.68711
H         56.19013       51.54024        3.59918
N         63.72555       51.42777        5.93846
C         64.69367       51.29226        7.02283
C         65.00399       52.63225        7.66910
O         65.36082       52.65364        8.83871
C         66.00049       50.62973        6.51248
C         65.76330       49.16078        6.10992
C         67.00306       48.39516        5.73390
O         67.61915       48.60712        4.55898
O         67.37800       47.47863        6.44220
H         64.01088       51.14880        5.00292
H         64.25141       50.63855        7.80706
H         66.74660       50.64402        7.32380
H         66.41298       51.22628        5.67926
H         65.04496       49.07794        5.27123
H         65.31850       48.65177        6.98979
N         64.84543       53.79394        6.97566
C         65.00059       55.10497        7.56734
H         64.03387       55.64575        7.47720
H         65.27352       55.06062        8.64138
H         65.77783       55.67296        7.01631
H         64.58054       53.75303        5.98836
Ca        69.19165       47.14137        3.86696
O         67.85420       46.79004        1.49040
H         67.25673       46.51081        0.75644
H         68.76112       46.63180        1.13592

Ca 1.70



