%chk=loop3.cluster1.chk
%nprocshared=48
%mem=10GB
%nosave
#b3lyp/svp scf=(tight,noincore) Test 
#IOP(5/87=12) Density=Current Pop=(MK,readradii) iop(6/33=2) iop(6/42=6)

loop3.cluster1 

   0  1 
C         36.52456       44.19284       43.59347
C         36.94952       43.69399       44.93358
O         36.15617       43.06272       45.61803
H         35.64923       44.85945       43.72576
H         37.34196       44.76796       43.10958
H         36.25612       43.33548       42.94277
N         38.21479       43.92273       45.37152
C         38.66990       43.45143       46.66034
C         38.08484       44.31415       47.76714
O         38.42599       45.48280       47.87438
C         40.19660       43.40681       46.65757
C         40.72554       42.73406       47.86201
O         39.94948       42.56039       48.94097
O         41.84513       42.29781       47.83488
H         38.88502       44.39472       44.74532
H         38.33762       42.39315       46.78007
H         40.66418       44.40427       46.52534
H         40.48691       42.76698       45.79181
N         37.14279       43.78897       48.59467
C         36.41857       44.56098       49.59857
C         37.30684       45.13009       50.70011
O         37.26943       46.33631       50.90100
C         35.23939       43.71683       50.13023
C         34.28916       44.51759       51.03560
C         32.87116       43.92469       51.00189
C         31.90969       44.70623       51.90741
N         30.53192       44.24014       51.73626
H         36.84881       42.82044       48.42133
H         35.94402       45.41861       49.06981
H         35.56996       42.78940       50.64744
H         34.67378       43.41262       49.22052
H         34.19845       45.55592       50.65178
H         34.70806       44.55579       52.06568
H         32.88237       42.85613       51.30789
H         32.49935       43.98899       49.95397
H         31.94890       45.79325       51.66809
H         32.22678       44.56876       52.96393
H         29.93207       44.65479       52.48548
H         30.16672       44.55206       50.80611
H         30.48093       43.19767       51.79841
N         38.15339       44.34292       51.43093
C         39.04585       44.90713       52.45497
C         40.44084       45.20945       51.91091
O         41.26133       45.73108       52.65478
C         39.16645       44.00267       53.70932
C         39.89429       42.70062       53.49964
O         40.18836       42.31746       52.38266
O         40.23928       41.95591       54.56547
H         38.24876       43.35633       51.16428
H         38.61780       45.86986       52.81584
H         38.17132       43.79703       54.15611
H         39.75819       44.56516       54.46343
N         40.77415       44.93719       50.61698
C         42.08047       45.24203       50.05831
C         43.20872       44.29259       50.46524
O         44.35733       44.68440       50.32966
H         40.05079       44.59643       49.98111
H         42.33588       46.28941       50.33423
H         42.02183       45.22133       48.95046
N         42.97409       43.02993       50.94571
C         44.06447       42.16206       51.42623
C         44.88355       41.47131       50.31908
O         45.84488       40.78172       50.63794
C         43.54341       41.08497       52.41906
C         42.77745       39.92403       51.82803
N         42.73344       38.73966       52.48232
O         42.21608       40.03692       50.75554
H         42.00759       42.71094       51.03757
H         44.73639       42.80529       52.03460
H         42.94436       41.53689       53.23795
H         44.44807       40.64557       52.88918
H         43.20502       38.62582       53.39096
H         42.24102       37.93176       52.07132
N         44.51249       41.55424       49.01243
C         45.13570       40.83419       47.90930
C         44.22878       39.78232       47.24763
O         44.69025       39.13397       46.32387
H         43.74292       42.16352       48.79321
H         46.04577       40.29737       48.25369
H         45.44888       41.57397       47.14183
N         42.97037       39.49994       47.71911
C         42.20153       38.32068       47.28479
C         40.71601       38.61982       47.10378
O         40.17549       39.45059       47.80559
C         42.36596       37.22693       48.35892
C         43.81247       36.80345       48.43395
C         44.62723       37.22688       49.49611
C         44.36476       36.01179       47.41335
C         45.97980       36.87546       49.52791
C         45.71284       35.64837       47.45539
C         46.52677       36.08567       48.51047
O         47.83350       35.75596       48.55162
H         42.61795       40.02600       48.51610
H         42.59007       37.91432       46.32785
H         41.74280       36.33153       48.13842
H         42.02629       37.63744       49.33418
H         44.22319       37.85075       50.28088
H         43.74799       35.67605       46.58851
H         46.60531       37.22346       50.34003
H         46.12572       35.03424       46.66499
H         48.24370       35.21740       47.85974
N         39.99696       37.93262       46.16421
C         38.56716       38.14439       45.90718
C         37.82111       36.81333       46.02182
O         38.24944       35.82612       45.44941
C         38.38936       38.79753       44.51723
C         38.96058       40.23850       44.56053
C         36.89595       38.83461       44.12071
C         39.21911       40.81017       43.17194
H         40.48952       37.24521       45.57911
H         38.12634       38.86515       46.62010
H         38.95360       38.19706       43.77211
H         39.94185       40.26254       45.07739
H         38.26367       40.89148       45.12599
H         36.28989       39.27221       44.94045
H         36.71346       39.43237       43.20907
H         36.52580       37.80699       43.92187
H         38.30041       40.84706       42.55722
H         39.62228       41.83992       43.26789
H         39.97890       40.18065       42.66036
N         36.67035       36.74819       46.75353
C         35.91725       35.52584       47.00592
C         34.46444       35.69784       46.57246
O         34.13368       36.71328       45.99620
C         36.02531       35.21417       48.50940
O         35.34826       36.16158       49.28916
H         36.30995       37.60090       47.17143
H         36.35399       34.66941       46.45617
H         37.10132       35.15671       48.80017
H         35.59320       34.22105       48.73661
H         35.94682       36.94101       49.36364
N         33.54302       34.72610       46.83647
C         32.12542       34.83203       46.47250
C         31.44019       36.02675       47.11961
O         30.76168       36.77154       46.42252
C         31.39962       33.54505       46.88196
H         33.86047       33.87321       47.31504
H         32.02968       34.91951       45.36744
H         31.45786       33.38890       47.98030
H         30.33165       33.58652       46.57793
H         31.87133       32.67693       46.37333
N         31.57500       36.27560       48.45351
C         30.93806       37.41557       49.11763
C         31.36261       38.75809       48.52317
O         30.63252       39.73041       48.65004
C         31.28373       37.38802       50.61146
H         32.16287       35.63540       49.01141
H         29.83534       37.31651       49.00548
H         30.92529       36.43570       51.05816
H         32.38757       37.44190       50.74690
H         30.81366       38.23371       51.15473
N         32.55982       38.87539       47.89063
C         33.06708       40.11706       47.31383
C         32.55856       40.28227       45.88263
O         32.25495       41.39638       45.47767
C         34.61227       40.08903       47.39278
C         35.07320       39.98347       48.87066
C         36.56250       39.89066       49.06788
O         37.17920       38.89178       48.76814
O         37.22235       40.89107       49.64173
H         33.17264       38.05149       47.86197
H         32.74149       40.99793       47.91395
H         35.03521       41.01356       46.94504
H         34.96747       39.22893       46.80331
H         34.62422       39.10422       49.37768
H         34.70781       40.89096       49.39087
N         32.35668       39.19054       45.09176
C         31.78573       39.26012       43.76522
H         30.79909       39.76648       43.80376
H         32.46695       39.78764       43.06637
H         31.62283       38.22590       43.38578
H         32.56334       38.26397       45.46165
Ca        39.42340       40.70769       50.01732
O         37.53954       41.30189       52.20868
H         36.70472       40.81768       52.01711
H         37.28915       41.93086       52.92456
O         36.81832       38.32428       52.01795
H         35.90544       38.70652       52.03881
H         36.88421       37.90351       51.12809
O         39.62876       37.72664       50.55139
H         39.74598       37.36486       51.46439
H         39.31987       36.94976       50.02398
O         39.57837       39.35366       52.89411
H         39.20847       40.00128       53.53723
H         40.36877       38.98493       53.35603

Ca 1.70



