%chk=loop1.cluster84.chk
%nprocshared=48
%mem=10GB
%nosave
#b3lyp/svp scf=(tight,noincore) Test 
#IOP(5/87=12) Density=Current Pop=(MK,readradii) iop(6/33=2) iop(6/42=6)

loop1.cluster84 

   0  1 
C         36.09055       86.41081      121.38660
C         36.75482       85.94244      122.64572
O         37.32961       84.86435      122.67366
H         35.06477       86.77371      121.61507
H         36.67620       87.26106      120.97686
H         36.03183       85.60210      120.63102
N         36.66627       86.71744      123.75437
C         37.28999       86.39587      125.03056
C         36.24528       85.95341      126.04235
O         36.54643       85.93223      127.22941
C         38.13084       87.61505      125.50764
C         37.38935       88.91337      125.70953
O         37.41302       89.51191      126.91585
O         36.84373       89.47415      124.77145
H         36.07028       87.55352      123.70074
H         38.00204       85.54677      124.93812
H         38.92638       87.81018      124.75937
H         38.62471       87.35564      126.46860
N         34.98747       85.58400      125.64222
C         33.91068       85.28487      126.57536
C         33.19997       83.98866      126.20195
O         32.55667       83.97533      125.15991
C         32.89835       86.44551      126.47901
C         33.53647       87.76397      126.92783
C         32.55076       88.92979      126.80793
C         33.18105       90.28183      127.18087
N         34.29993       90.61855      126.30228
H         34.75012       85.59299      124.63898
H         34.28820       85.24137      127.61211
H         32.00146       86.23382      127.09635
H         32.57340       86.55621      125.41521
H         34.41194       87.95886      126.27747
H         33.87985       87.66980      127.98056
H         31.68709       88.74047      127.48076
H         32.17600       88.99261      125.76303
H         33.53081       90.26735      128.23786
H         32.40044       91.06545      127.08328
H         34.59985       91.60562      126.46452
H         35.10069       90.00520      126.54110
H         34.04150       90.49232      125.29619
N         33.21837       82.84558      126.95836
C         34.03770       82.56068      128.14149
C         33.61547       83.36575      129.37993
O         32.74250       84.21186      129.25579
C         35.55469       82.63127      127.79226
C         35.87037       82.05350      126.44208
O         36.60521       82.65249      125.67375
O         35.32281       80.88862      126.06379
H         32.65381       82.05406      126.60989
H         33.82705       81.49565      128.38761
H         36.14471       82.04054      128.50932
H         35.94609       83.65936      127.84233
N         34.15992       83.17257      130.62452
C         35.19296       82.19771      130.93515
C         36.55679       82.87422      131.00144
O         36.61336       84.09122      130.88462
H         33.84590       83.78663      131.39343
H         35.15133       81.35637      130.22396
H         34.96882       81.73424      131.92172
N         37.71839       82.18508      131.21326
C         37.81229       80.73063      131.29254
C         38.93013       80.24646      130.37764
O         39.95790       80.90549      130.29236
C         38.06034       80.32102      132.75747
C         37.54012       78.93666      133.04563
O         36.41452       78.79287      133.77496
O         38.09690       77.95016      132.59379
H         38.58468       82.73166      131.33992
H         36.85317       80.26518      130.99604
H         37.45116       80.99889      133.39033
H         39.12230       80.44368      133.06896
N         38.83523       79.05503      129.72614
C         39.94175       78.51894      128.94365
C         40.23998       79.27381      127.66316
O         39.51780       80.19098      127.29149
H         38.00093       78.47118      129.87365
H         39.72810       77.46429      128.66828
H         40.85272       78.52336      129.58210
N         41.35243       78.93933      126.94953
C         41.77043       79.63081      125.73111
C         40.89808       79.31191      124.55266
O         40.17746       78.32250      124.59428
C         43.21946       79.23443      125.35168
C         43.32113       77.74461      124.93279
O         44.04586       79.50465      126.45209
H         41.96708       78.21473      127.35026
H         41.73413       80.72711      125.92935
H         43.55909       79.85504      124.49022
H         44.95995       79.20802      126.21073
H         42.78140       77.56527      123.97684
H         44.37812       77.45803      124.76791
H         42.88978       77.06867      125.69790
N         41.04018       80.02588      123.40349
C         40.33330       79.72207      122.17467
C         41.28900       79.08629      121.18986
O         42.08701       79.77544      120.56149
C         39.56359       80.97081      121.61531
C         38.86391       80.64581      120.26427
C         40.45990       82.22464      121.47172
C         38.00082       81.79359      119.72739
H         41.73727       80.78395      123.39406
H         39.55496       78.95166      122.37962
H         38.78119       81.21871      122.36629
H         38.20679       79.75993      120.39661
H         39.62278       80.40001      119.48897
H         40.95267       82.49891      122.42209
H         41.22914       82.09116      120.68514
H         39.85165       83.11507      121.22213
H         38.61439       82.68371      119.47744
H         37.49941       81.47890      118.78863
H         37.22899       82.07579      120.47340
N         41.21742       77.74523      120.97546
C         41.81987       77.06843      119.84500
C         40.70143       76.47951      118.96768
O         41.00350       75.81652      117.99137
C         42.86147       76.01938      120.32214
C         42.24132       74.83523      121.06792
O         43.80680       76.63156      121.16440
H         40.61230       77.18219      121.59836
H         42.38210       77.79127      119.20891
H         43.38986       75.59526      119.43678
H         44.24900       77.35098      120.64168
H         41.55381       74.27423      120.40083
H         43.04654       74.14061      121.39115
H         41.68960       75.16971      121.96905
N         39.37328       76.74827      119.25305
C         38.22180       76.33410      118.45285
C         37.97348       74.83796      118.51980
O         38.79713       74.10470      119.05729
C         38.33396       76.87103      116.99699
C         38.53689       78.39535      116.98249
O         37.17570       76.55449      116.26771
H         39.13714       77.34263      120.05319
H         37.32609       76.80199      118.92364
H         39.20346       76.38031      116.51379
H         37.24720       76.97465      115.37274
H         38.78788       78.71828      115.95056
H         37.60606       78.90889      117.30452
H         39.37054       78.71046      117.64190
N         36.81583       74.32049      118.00248
C         36.54046       72.90188      117.91946
C         35.32041       72.32113      118.65854
O         35.32220       71.10169      118.75810
C         36.44317       72.48790      116.43582
C         37.77210       72.69652      115.69211
C         37.89634       71.71024      114.51868
C         39.30310       71.68062      113.89928
N         39.72697       72.98050      113.38314
H         36.14305       74.96245      117.58716
H         37.39837       72.34415      118.35964
H         35.61632       73.01899      115.90777
H         36.20117       71.40596      116.42002
H         38.61305       72.47357      116.38036
H         37.85540       73.75906      115.36771
H         37.11872       71.91776      113.75453
H         37.72902       70.68134      114.91367
H         39.30680       70.93391      113.07358
H         40.03270       71.33713      114.66675
H         39.08665       73.29268      112.61878
H         39.75242       73.69055      114.14868
H         40.69750       72.88733      113.00600
N         34.22157       72.97355      119.16774
C         33.84754       74.38274      119.17407
C         33.71353       75.00297      117.80097
O         34.02464       76.17480      117.63217
C         34.64295       75.21225      120.18580
C         34.43466       74.70282      121.61167
C         35.20308       75.57729      122.52651
O         36.41573       75.62932      122.42635
O         34.56167       76.33630      123.42965
H         33.50948       72.35277      119.58779
H         32.80097       74.41440      119.55427
H         34.28276       76.26480      120.15252
H         35.71827       75.21172      119.95357
H         34.79463       73.65900      121.73498
H         33.35480       74.74695      121.87522
N         33.19600       74.28106      116.77322
C         32.97322       74.87624      115.47531
H         32.21315       75.68194      115.56549
H         33.91905       75.30116      115.07648
H         32.59616       74.10657      114.77116
H         32.95592       73.28954      116.91357
Ca        34.83398       78.36143      125.20657
O         32.51703       79.48401      124.47323
H         32.55052       80.47266      124.47347
H         31.84555       79.24669      125.16028
O         35.52759       79.91163      122.95212
H         35.87009       80.83436      123.05481
H         35.85389       79.61334      122.06696
O         33.72187       78.01432      127.61682
H         33.23400       78.54700      128.29088
H         33.61098       77.06986      127.88966
O         35.89706       75.91047      126.11721
H         35.93719       75.61123      127.05915
H         36.43557       75.25131      125.61286
O         37.32235       77.90335      124.38297
H         37.97940       78.60194      124.17620
H         37.37253       77.31621      123.59915
O         36.62118       78.62262      127.33399
H         37.18774       79.43149      127.31997
H         37.10193       77.97505      127.90325

Ca 1.70



