%chk=loop3.cluster164.chk
%nprocshared=48
%mem=10GB
%nosave
#b3lyp/svp scf=(tight,noincore) Test 
#IOP(5/87=12) Density=Current Pop=(MK,readradii) iop(6/33=2) iop(6/42=6)

loop3.cluster164 

   0  1 
C         -3.97719      -15.93278       30.84673
C         -4.85810      -17.07668       30.45170
O         -5.91561      -17.23578       31.04941
H         -3.04870      -15.90492       30.23980
H         -4.52879      -14.98015       30.69431
H         -3.70723      -16.02706       31.91865
N         -4.51711      -17.89610       29.41424
C         -5.39779      -18.95551       28.94602
C         -4.63152      -20.23482       28.64788
O         -3.60992      -20.19155       27.96877
C         -6.14379      -18.48657       27.69599
C         -7.27775      -19.42828       27.41386
O         -8.29730      -19.53187       28.28998
O         -7.27610      -20.10925       26.40639
H         -3.65613      -17.69392       28.87985
H         -6.17897      -19.15889       29.71361
H         -5.43624      -18.41211       26.84289
H         -6.59127      -17.48329       27.86581
N         -5.10303      -21.42709       29.09573
C         -4.42175      -22.70065       28.88932
C         -4.23255      -23.09773       27.42457
O         -3.19432      -23.65001       27.10148
C         -5.12308      -23.81945       29.67986
C         -6.55680      -24.14617       29.21185
C         -7.18436      -25.29380       30.02359
C         -7.28930      -25.03114       31.53923
N         -8.18828      -23.91798       31.84619
H         -5.97931      -21.41692       29.64245
H         -3.40761      -22.61764       29.34214
H         -5.14411      -23.47751       30.73582
H         -4.50637      -24.74192       29.62676
H         -6.53431      -24.46891       28.15062
H         -7.20174      -23.24916       29.27051
H         -6.56611      -26.20411       29.86869
H         -8.20089      -25.50245       29.62364
H         -6.28701      -24.84404       31.97776
H         -7.67689      -25.95002       32.02956
H         -7.86186      -23.03314       31.39812
H         -9.15505      -24.14694       31.51984
H         -8.20580      -23.77151       32.88101
N         -5.20121      -22.85272       26.49495
C         -5.06133      -23.24008       25.08424
C         -4.90144      -22.03602       24.14885
O         -4.67976      -22.25241       22.96182
C         -6.22373      -24.18694       24.66928
C         -7.58792      -23.79694       25.16490
O         -8.07258      -22.71599       24.88113
O         -8.28630      -24.66635       25.92098
H         -6.05618      -22.36387       26.78910
H         -4.12634      -23.81517       24.92039
H         -6.02316      -25.19136       25.10042
H         -6.25527      -24.30121       23.56427
N         -4.94911      -20.74719       24.60398
C         -4.78411      -19.55066       23.76926
C         -5.93789      -19.24102       22.81337
O         -6.03814      -18.11353       22.35072
H         -5.06283      -20.59039       25.61204
H         -3.81211      -19.56115       23.23239
H         -4.75631      -18.68941       24.47136
N         -6.86048      -20.18790       22.50635
C         -8.07588      -19.97765       21.72686
C         -8.95197      -18.96594       22.45519
O         -9.23214      -19.16841       23.62747
C         -8.75653      -21.37173       21.66329
C        -10.11964      -21.50429       21.06963
N        -10.80167      -22.65786       21.26374
O        -10.62562      -20.58942       20.44238
H         -6.72157      -21.12306       22.88133
H         -7.84014      -19.62960       20.69485
H         -8.86120      -21.71754       22.71167
H         -8.08329      -22.08797       21.13670
H        -10.37630      -23.42655       21.80718
H        -11.75985      -22.77127       20.90728
N         -9.40959      -17.83723       21.83238
C        -10.19486      -16.82415       22.53969
C        -11.55167      -17.30864       23.04504
O        -12.20489      -16.58672       23.78247
H         -9.16599      -17.67261       20.84328
H        -10.38046      -15.95928       21.86557
H         -9.59202      -16.46343       23.39944
N        -12.04887      -18.50752       22.64448
C        -13.34255      -19.05310       23.04194
C        -13.41294      -19.37394       24.53555
O        -12.46433      -19.90105       25.09042
C        -13.57129      -20.33978       22.22477
C        -14.88494      -21.00523       22.51482
C        -14.90423      -22.26944       23.12071
C        -16.09389      -20.37823       22.17617
C        -16.11768      -22.89912       23.39347
C        -17.30874      -21.01402       22.44225
C        -17.32305      -22.27715       23.05410
O        -18.48835      -22.89987       23.31559
H        -11.50089      -19.04524       21.97188
H        -14.14593      -18.33319       22.76895
H        -12.73609      -21.03558       22.45065
H        -13.53200      -20.10574       21.13659
H        -13.97841      -22.76252       23.38588
H        -16.09321      -19.40544       21.69926
H        -16.11955      -23.87250       23.86634
H        -18.23687      -20.52739       22.17153
H        -19.33902      -22.49645       23.09300
N        -14.57118      -19.13131       25.21598
C        -14.82353      -19.40860       26.63257
C        -14.84121      -20.89710       26.99059
O        -13.80759      -21.53964       27.02145
C        -13.90547      -18.59237       27.58865
C        -14.20584      -18.85773       29.09258
C        -14.00460      -17.08889       27.28336
C        -15.63212      -18.55382       29.54203
H        -15.35118      -18.71219       24.68840
H        -15.85229      -19.03388       26.81428
H        -12.85086      -18.89302       27.42633
H        -13.50537      -18.25123       29.70742
H        -14.01537      -19.92050       29.34368
H        -13.38018      -16.50770       27.99490
H        -13.63808      -16.87698       26.25831
H        -15.05442      -16.73640       27.35802
H        -16.36380      -19.22393       29.04583
H        -15.67975      -18.74084       30.62850
H        -15.90746      -17.49720       29.35994
N        -16.02100      -21.47930       27.34318
C        -16.13085      -22.82041       27.93659
C        -17.56870      -23.35884       27.94038
O        -17.74146      -24.56897       27.89580
C        -15.57387      -22.81651       29.37395
O        -16.27657      -21.88409       30.14719
H        -16.85869      -20.91637       27.19061
H        -15.54217      -23.52913       27.31335
H        -14.49474      -22.54526       29.35397
H        -15.67708      -23.82468       29.83423
H        -15.71569      -21.70228       30.94541
N        -18.64463      -22.51987       27.99210
C        -20.03072      -22.92076       27.83796
C        -20.54173      -23.93508       28.85990
O        -21.16023      -24.90427       28.43911
C        -20.27082      -23.39540       26.38799
H        -18.50227      -21.51369       28.12388
H        -20.63880      -21.99859       27.96690
H        -19.81261      -24.39227       26.20495
H        -21.36035      -23.46431       26.17915
H        -19.83021      -22.67374       25.66908
N        -20.40990      -23.80664       30.21586
C        -19.58621      -22.84857       30.95339
C        -20.44980      -22.01673       31.88639
O        -21.31076      -22.60248       32.52839
C        -18.63687      -23.68653       31.82514
H        -20.89292      -24.51862       30.78819
H        -18.97310      -22.21543       30.30555
H        -19.22133      -24.30974       32.53875
H        -18.02674      -24.36513       31.19371
H        -17.95638      -23.05652       32.42494
N        -20.29014      -20.67273       32.10144
C        -19.22250      -19.82075       31.56413
C        -19.57264      -18.32348       31.52105
O        -18.77282      -17.57060       30.97786
C        -17.91904      -19.99749       32.38456
C        -18.11486      -19.93958       33.90729
C        -16.79476      -20.04304       34.62150
O        -16.06950      -21.00906       34.44088
O        -16.41147      -19.07211       35.47232
H        -20.87570      -20.28802       32.84916
H        -19.03377      -20.07144       30.49845
H        -17.18479      -19.22427       32.08883
H        -17.47725      -20.97367       32.15336
H        -18.74966      -20.79509       34.22380
H        -18.61688      -18.99326       34.19956
N        -20.71613      -17.80062       32.05746
C        -20.98826      -16.38155       32.01197
H        -21.94447      -16.16913       32.53601
H        -20.17546      -15.82171       32.52241
H        -21.07438      -16.04488       30.95785
H        -21.41283      -18.38643       32.52384
Ca        -9.89874      -20.65710       25.90829
O        -11.41383      -22.86449       25.11283
H        -12.17099      -22.39035       25.53030
H        -11.82443      -23.35345       24.35998
O         -9.31906      -22.56072       27.90880
H         -9.66973      -22.53773       28.83119
H         -9.45065      -23.50002       27.63973
O        -11.29352      -20.61503       28.86390
H        -12.17844      -20.94596       28.58985
H        -11.20890      -20.94184       29.79263
O        -10.37243      -17.96258       26.60913
H         -9.75052      -17.19398       26.58688
H        -10.60358      -18.07032       27.56569

Ca 1.70



