%chk=loop4.cluster162.chk
%nprocshared=48
%mem=10GB
%nosave
#b3lyp/svp scf=(tight,noincore) Test 
#IOP(5/87=12) Density=Current Pop=(MK,readradii) iop(6/33=2) iop(6/42=6)

loop4.cluster162 

   -3  1 
C         65.48025       79.13262       69.44805
C         64.75288       78.46934       70.57763
O         63.54227       78.33938       70.49727
H         66.35503       78.51546       69.14720
H         64.82019       79.24257       68.55936
H         65.82446       80.13082       69.77927
N         65.46577       77.97441       71.64107
C         64.96430       77.20992       72.79948
C         64.41781       75.81542       72.45861
O         64.33319       74.98438       73.35426
C         64.01755       78.01996       73.73355
C         62.68316       78.22122       73.09931
O         62.04834       77.11782       72.70189
O         62.28230       79.33040       72.78433
H         66.48572       78.12270       71.61495
H         65.87231       77.00024       73.40894
H         64.49317       78.98474       73.99858
H         63.84683       77.43730       74.66647
N         64.01599       75.49439       71.19470
C         63.53839       74.19040       70.80695
C         62.01522       74.11212       71.14417
O         61.21009       74.69436       70.14722
C         63.90643       73.95905       69.30139
C         63.54873       72.53110       68.83358
C         65.40791       74.27835       69.05624
C         63.90696       72.27729       67.36584
H         64.06956       76.17738       70.45264
H         64.10788       73.43691       71.40081
H         63.32628       74.68248       68.68595
H         62.45328       72.39132       68.93907
H         64.06632       71.77406       69.46244
H         65.66437       75.32570       69.31700
H         66.06394       73.60962       69.64912
H         65.66677       74.21110       67.98259
H         65.00792       72.26106       67.22278
H         63.52259       71.28634       67.05184
H         63.46303       73.06135       66.71563
N         61.60835       72.73983       71.41009
C         60.23469       72.59650       71.93324
C         59.91386       73.43288       73.17934
O         60.75402       73.51908       74.06301
C         59.97800       71.11003       72.27938
C         60.79817       70.56915       73.43780
O         62.01352       70.48154       73.36251
O         60.17823       70.14900       74.55606
H         62.28766       72.37084       72.10301
H         59.54127       72.86016       71.10889
H         60.16869       70.48951       71.37965
H         58.90587       71.00503       72.54931
N         58.65924       73.93455       73.41376
C         57.57033       73.90583       72.44861
C         57.75426       74.99867       71.42583
O         58.70990       75.74856       71.53640
H         58.46010       74.35481       74.33526
H         56.63300       74.13332       72.98661
H         57.46531       72.89918       71.99188
N         56.89346       75.19558       70.39259
C         55.72951       74.36541       70.08915
C         55.17642       74.80585       68.74884
O         54.75910       75.95152       68.63127
C         54.58094       74.40745       71.13018
C         54.30327       75.76930       71.70518
O         55.19583       76.34193       72.53575
O         53.24003       76.32605       71.48647
H         57.12418       75.96398       69.73864
H         56.05745       73.31434       70.02526
H         54.77866       73.71749       71.96922
H         53.66481       74.00434       70.63757
N         55.14058       73.98041       67.66816
C         55.62008       72.59242       67.69889
C         55.61187       71.83004       66.37954
O         55.99711       70.66718       66.38687
H         54.75008       74.39483       66.82301
H         54.99780       72.02114       68.42434
H         56.67827       72.58198       68.03923
N         55.20452       72.39475       65.20655
C         55.19047       71.69489       63.93364
C         56.58933       71.44662       63.36301
O         56.70597       70.77844       62.34972
C         54.34074       72.55259       62.96623
C         54.28226       72.00388       61.54633
C         53.12493       72.57938       60.79458
N         51.89206       72.04905       60.96537
O         53.29803       73.48908       59.99820
H         54.86286       73.35459       65.19337
H         54.67000       70.72003       64.07037
H         54.73103       73.59808       62.91668
H         53.32088       72.59985       63.41068
H         54.15338       70.90238       61.56554
H         55.23915       72.25278       61.03771
H         51.75400       71.25435       61.60929
H         51.08881       72.40343       60.42882
N         57.69074       71.97689       63.95761
C         59.02375       71.91732       63.36846
C         59.54972       73.33572       63.27812
O         59.43016       74.08488       64.23348
C         59.97870       71.01928       64.19506
C         59.64800       69.53704       63.96477
C         59.96862       71.33635       65.69764
H         57.58919       72.49905       64.83404
H         59.01122       71.49195       62.33935
H         61.01142       71.17455       63.80738
H         58.60992       69.30306       64.27999
H         59.75728       69.28729       62.88578
H         60.35515       68.89309       64.52914
H         58.97216       71.11781       66.13749
H         60.72211       70.71045       66.21822
H         60.22307       72.39787       65.88536
N         60.18676       73.75687       62.15081
C         60.73627       75.10528       62.05695
C         59.64322       76.13570       61.77807
O         59.93101       77.32246       61.84697
C         61.87093       75.10768       61.02054
C         62.59542       76.42195       60.89218
N         62.64035       77.05528       59.69777
O         63.16594       76.90352       61.85993
H         60.34788       73.08970       61.38370
H         61.20805       75.34796       63.03665
H         61.45443       74.80172       60.03947
H         62.62073       74.34657       61.33252
H         62.16772       76.65274       58.87532
H         63.15497       77.94144       59.59394
N         58.36431       75.76701       61.46066
C         57.25525       76.71918       61.39136
C         56.90103       77.16024       62.80096
O         56.86434       76.32286       63.69365
C         56.03774       76.06627       60.71365
C         54.85026       76.99335       60.54065
C         54.94914       78.15515       59.75046
C         53.61754       76.67214       61.13271
C         53.82402       78.96017       59.53480
C         52.49664       77.47970       60.91701
C         52.59106       78.61616       60.10797
O         51.49118       79.36252       59.87683
H         58.15696       74.76984       61.29217
H         57.54339       77.58708       60.75863
H         55.74312       75.16228       61.28751
H         56.34232       75.73393       59.69690
H         55.88748       78.42624       59.28383
H         53.52035       75.78677       61.74730
H         53.90600       79.84173       58.91025
H         51.54831       77.21135       61.36496
H         51.50880       80.12719       59.28334
N         56.66767       78.47820       63.07351
C         56.48446       79.02023       64.42219
C         57.78702       79.06720       65.21412
O         57.79010       79.61734       66.30669
C         55.27257       78.41428       65.16429
C         53.97384       78.88918       64.49260
C         52.76244       78.37644       65.20783
O         51.91670       79.23998       65.80279
O         52.53192       77.17891       65.24474
H         56.66159       79.14565       62.28814
H         56.26283       80.10519       64.31340
H         55.25680       78.79549       66.20892
H         55.32180       77.30787       65.22002
H         53.93662       78.57325       63.42888
H         53.95378       80.00229       64.52468
N         58.96251       78.69961       64.62646
C         60.26397       79.14082       65.09961
C         60.75494       80.28551       64.21076
O         61.77414       80.88016       64.53380
C         61.27566       77.97239       65.05073
C         60.83724       76.78034       65.91063
C         60.81147       77.07780       67.38064
O         60.12470       76.26312       68.19782
O         61.40701       78.03991       67.84285
H         58.94311       78.26252       63.70919
H         60.18442       79.54762       66.13049
H         62.28738       78.31209       65.36139
H         61.35131       77.62513       63.99928
H         61.51134       75.91216       65.74630
H         59.82005       76.47108       65.59137
N         60.07692       80.66359       63.07971
C         60.49926       81.77879       62.26541
H         61.53058       81.61723       61.89004
H         59.81572       81.88112       61.39346
H         60.44770       82.71352       62.86103
H         59.23458       80.16205       62.77005
Ca        61.05138       76.87471       70.76482
O         58.52004       78.86943       70.46842
H         57.90826       78.79995       71.24402
H         57.98560       78.54528       69.70046

Ca 1.70



