%chk=loop3.cluster187.chk
%nprocshared=48
%mem=10GB
%nosave
#b3lyp/svp scf=(tight,noincore) Test 
#IOP(5/87=12) Density=Current Pop=(MK,readradii) iop(6/33=2) iop(6/42=6)

loop3.cluster187 

   0  1 
C        115.76971       79.89767       42.30104
C        116.88167       78.89653       42.24362
O        116.70084       77.77493       42.69242
H        114.87416       79.45609       42.78803
H        116.09251       80.79457       42.86613
H        115.49610       80.19248       41.26501
N        118.06153       79.23221       41.65034
C        119.12370       78.26262       41.42900
C        120.46156       78.74794       41.99629
O        120.77937       79.92050       41.88194
C        119.23130       78.03217       39.92705
C        120.15054       76.89589       39.68593
O        119.80706       75.64085       40.03573
O        121.24834       77.11988       39.23969
H        118.17344       80.18156       41.26332
H        118.86696       77.28282       41.88765
H        119.60441       78.96150       39.44126
H        118.25015       77.77286       39.47529
N        121.30111       77.85655       42.60508
C        122.54106       78.26031       43.28010
C        123.58917       78.91863       42.37909
O        124.46022       79.60419       42.90554
C        123.13937       77.05352       44.04541
C        123.79435       76.01096       43.11621
C        124.25339       74.77357       43.90431
C        125.03308       73.74528       43.06146
N        126.28237       74.29400       42.52717
H        121.00984       76.87109       42.65595
H        122.23378       79.01163       44.04025
H        122.32211       76.58158       44.63751
H        123.90878       77.40954       44.76400
H        124.66899       76.49061       42.63426
H        123.08703       75.70244       42.32352
H        123.35614       74.26946       44.32801
H        124.90256       75.09109       44.74747
H        124.40830       73.35475       42.23077
H        125.28001       72.88783       43.72543
H        126.82559       74.77607       43.27906
H        126.86120       73.51637       42.13570
H        126.08704       74.96615       41.75640
N        123.62309       78.69899       41.03114
C        124.59718       79.32411       40.13074
C        123.95831       80.05937       38.95419
O        124.68432       80.73249       38.24075
C        125.61987       78.27821       39.63144
C        124.97376       77.04521       39.07706
O        124.39328       77.07342       38.00638
O        125.02493       75.90146       39.77823
H        122.95938       78.01899       40.64101
H        125.18238       80.09664       40.67807
H        126.22953       77.97201       40.50627
H        126.32096       78.70234       38.87631
N        122.62274       79.96388       38.67047
C        122.01784       80.66467       37.54595
C        121.55268       79.74176       36.43586
O        121.06234       80.25524       35.43855
H        122.01276       79.37935       39.24432
H        122.71649       81.40773       37.11087
H        121.13345       81.22633       37.91801
N        121.67546       78.38117       36.51136
C        121.12415       77.48721       35.49964
C        120.41082       76.27525       36.19830
O        121.34080       75.25159       36.47305
C        122.25859       77.09248       34.52111
C        121.89446       76.20482       33.35260
N        122.87837       75.62001       32.63180
O        120.72864       76.01258       33.04567
H        122.16695       77.96250       37.30506
H        120.35717       78.04693       34.92159
H        123.05348       76.58992       35.10901
H        122.69821       78.01794       34.08713
H        123.86674       75.76805       32.88295
H        122.65114       74.99864       31.84197
N        119.36610       75.73172       35.31136
C        118.54491       74.64638       35.87359
C        118.97667       73.28901       35.34466
O        118.27743       72.31797       35.57948
H        118.76452       76.47394       34.88653
H        117.49375       74.80685       35.53997
H        118.53475       74.65357       36.98708
N        120.11729       73.15419       34.60832
C        120.61023       71.89788       34.04958
C        120.90754       70.88137       35.15359
O        121.62125       71.19972       36.08950
C        121.87271       72.21365       33.22344
C        122.55048       70.97071       32.73612
C        123.77020       70.58813       33.31093
C        121.96870       70.17481       31.73853
C        124.39619       69.41151       32.90898
C        122.60518       69.00094       31.32635
C        123.81748       68.61162       31.91943
O        124.42781       67.46889       31.55060
H        120.68235       73.99056       34.43669
H        119.84944       71.47781       33.35659
H        122.57393       72.78556       33.86969
H        121.61249       72.86831       32.36113
H        124.22087       71.19184       34.08993
H        121.02923       70.46488       31.28257
H        125.32728       69.11798       33.37520
H        122.15462       68.39131       30.55395
H        124.03925       66.87690       30.89189
N        120.35561       69.63222       35.09461
C        120.35650       68.65886       36.19169
C        121.69757       68.00783       36.53268
O        122.74470       68.63440       36.48231
C        119.57114       69.23293       37.42122
C        119.65315       68.37500       38.71275
C        118.10304       69.40485       36.99008
C        118.93536       69.00825       39.90991
H        119.80084       69.39073       34.26057
H        119.75958       67.79670       35.82264
H        120.00448       70.21892       37.68112
H        120.71667       68.29003       39.00860
H        119.23908       67.35796       38.54448
H        117.50908       69.94650       37.74894
H        118.02826       69.97412       36.04706
H        117.64871       68.40678       36.80778
H        119.11468       68.39873       40.82016
H        119.32186       70.03368       40.09311
H        117.83936       69.05025       39.74989
N        121.65841       66.72898       37.02094
C        122.78233       66.01578       37.61857
C        122.83910       64.53397       37.20903
O        123.93474       63.99374       37.12983
C        122.63072       66.12395       39.14364
O        121.38092       65.63189       39.54619
H        120.72942       66.30548       37.11920
H        123.75306       66.49652       37.36732
H        122.71145       67.19890       39.42188
H        123.44674       65.56899       39.65219
H        121.27135       65.87833       40.50059
N        121.70112       63.78701       37.05332
C        121.67581       62.35151       36.78063
C        122.46625       61.51833       37.79377
O        123.35133       60.78198       37.38102
C        122.11746       62.05340       35.33928
H        120.78335       64.23659       37.16436
H        120.61686       62.01010       36.83922
H        121.46729       62.59193       34.61926
H        123.17496       62.34202       35.17220
H        122.01049       60.96271       35.13777
N        122.18536       61.49925       39.12969
C        121.22064       62.35274       39.81119
C        120.02787       61.54226       40.26702
O        120.19744       60.35692       40.51671
C        121.93307       62.97377       41.01700
H        122.70658       60.82134       39.71037
H        120.85843       63.14033       39.15159
H        122.35285       62.17444       41.66772
H        122.78367       63.59397       40.66958
H        121.24471       63.59665       41.62261
N        118.76782       62.06213       40.40396
C        118.35430       63.45608       40.20968
C        117.30702       63.52889       39.10777
O        117.47225       64.30971       38.17966
C        117.79695       63.96615       41.55395
C        117.28497       65.41523       41.54426
C        116.83976       65.79095       42.93149
O        117.72864       65.80244       43.94439
O        115.67200       66.07141       43.14956
H        118.03402       61.40555       40.70861
H        119.19200       64.12831       39.94129
H        118.61838       63.88798       42.29917
H        116.96296       63.30771       41.88036
H        116.42922       65.50880       40.83961
H        118.08386       66.11745       41.22334
N        116.18503       62.75210       39.16550
C        115.14131       62.78643       38.16066
H        114.21832       63.19260       38.62316
H        115.40781       63.41002       37.28174
H        114.93260       61.75456       37.80478
H        116.05142       62.11430       39.96199
Ca       122.42717       75.05245       38.49938
O        123.69424       73.71554       36.53348
H        124.36954       73.96487       35.85792
H        123.46972       72.77496       36.33826
O        121.07455       72.70817       38.60748
H        120.21032       72.33938       38.91278
H        121.64574       71.92150       38.42737
O        124.65420       73.16646       39.52233
H        125.63209       73.31580       39.47617
H        124.55727       72.22982       39.82446
O        122.00585       73.73055       41.26770
H        121.51980       73.89842       42.11351
H        121.86968       72.76772       41.08994

Ca 1.70



