%chk=loop1.cluster13.chk
%nprocshared=48
%mem=10GB
%nosave
#b3lyp/svp scf=(tight,noincore) Test 
#IOP(5/87=12) Density=Current Pop=(MK,readradii) iop(6/33=2) iop(6/42=6)

loop1.cluster13 

   0  1 
C         58.89785      -21.31173       31.51025
C         59.28752      -22.74769       31.36643
O         59.24372      -23.27735       30.27015
H         58.00203      -21.21388       32.16069
H         59.74436      -20.76114       31.97307
H         58.68412      -20.87042       30.51607
N         59.73280      -23.42671       32.44954
C         60.18467      -24.81310       32.43531
C         59.41984      -25.61277       33.48120
O         59.87466      -26.67105       33.89248
C         61.71212      -24.84640       32.69946
C         62.17583      -23.98943       33.84060
O         62.66769      -24.56658       34.94797
O         62.18529      -22.77146       33.73433
H         59.77144      -22.92015       33.34979
H         60.03017      -25.31310       31.45925
H         62.25781      -24.50185       31.79605
H         62.02411      -25.89439       32.89025
N         58.25431      -25.11974       33.99204
C         57.61996      -25.65674       35.16742
C         56.11751      -25.94209       34.94758
O         55.32704      -25.21046       35.51249
C         57.82649      -24.60576       36.28846
C         59.30724      -24.48253       36.71200
C         59.40740      -23.74023       38.05217
C         60.84706      -23.49856       38.53053
N         61.61804      -22.71971       37.56077
H         57.84941      -24.25959       33.60239
H         58.12454      -26.53969       35.56554
H         57.24185      -24.92967       37.17252
H         57.45085      -23.60438       35.96639
H         59.87136      -23.95853       35.90922
H         59.75589      -25.48870       36.85714
H         58.88590      -24.34325       38.83013
H         58.89440      -22.75926       37.97207
H         61.36955      -24.46062       38.73922
H         60.78547      -22.93551       39.48756
H         62.41364      -22.24033       38.03836
H         62.01604      -23.36983       36.85536
H         61.02361      -22.00631       37.07917
N         55.59824      -26.99402       34.21143
C         56.26497      -28.01856       33.41218
C         57.26015      -28.93521       34.12783
O         57.64969      -28.65854       35.25412
C         56.81956      -27.41491       32.08229
C         55.89938      -27.54227       30.88455
O         56.47773      -27.77105       29.68279
O         54.74874      -27.92072       31.04919
H         54.56520      -27.06163       34.22209
H         55.47579      -28.75541       33.14950
H         57.74373      -27.94775       31.79726
H         57.11869      -26.36128       32.19019
N         57.70933      -30.09279       33.56603
C         57.13284      -30.67840       32.35624
C         57.93989      -31.87158       31.91428
O         58.10367      -32.78781       32.70739
H         58.43547      -30.62831       34.06375
H         57.05912      -29.95146       31.54754
H         56.09652      -31.01569       32.58165
N         58.47747      -31.98330       30.66275
C         58.35487      -30.97613       29.59934
C         59.14744      -29.70623       29.89328
O         58.92482      -28.70352       29.22891
C         58.76287      -31.59882       28.24673
C         60.12938      -32.23126       28.29203
O         61.13105      -31.54500       28.31896
O         60.24427      -33.56943       28.38311
H         58.97674      -32.85835       30.45754
H         57.27856      -30.70755       29.49582
H         58.69167      -30.87517       27.40458
H         58.02899      -32.40854       28.04655
N         60.07900      -29.67126       30.88910
C         60.78520      -28.46579       31.29536
C         61.88153      -28.00190       30.35624
O         62.61937      -27.09862       30.72099
H         60.26718      -30.52708       31.42769
H         61.26923      -28.68764       32.26931
H         60.06114      -27.64534       31.45858
N         62.05561      -28.56889       29.13335
C         63.08962      -28.15301       28.19724
C         62.88060      -26.69516       27.83955
O         61.77827      -26.32749       27.46088
C         63.04915      -29.07231       26.94709
C         64.38921      -29.09878       26.20620
O         61.97555      -28.71703       26.10719
H         61.42902      -29.31856       28.84935
H         64.07484      -28.30416       28.69517
H         62.90477      -30.11347       27.29501
H         62.19020      -28.95083       25.16758
H         65.20552      -29.34884       26.91644
H         64.35250      -29.90527       25.44107
H         64.61081      -28.13070       25.72707
N         63.90246      -25.80732       27.94111
C         63.73661      -24.37703       27.70062
C         64.38404      -24.05150       26.37091
O         65.28616      -23.23242       26.28424
C         64.26719      -23.57538       28.92844
C         63.95418      -22.05577       28.85689
C         65.77196      -23.82659       29.17963
C         62.46892      -21.74775       29.09176
H         64.83830      -26.17436       28.15413
H         62.65910      -24.13045       27.57808
H         63.75113      -23.95273       29.83800
H         64.29579      -21.59683       27.90440
H         64.49675      -21.55182       29.68404
H         66.11644      -23.25376       30.06200
H         65.95993      -24.89097       29.42012
H         66.41378      -23.55059       28.32261
H         62.32441      -20.64943       29.17760
H         61.82585      -22.12068       28.27003
H         62.13529      -22.20474       30.04962
N         63.92386      -24.68819       25.26570
C         64.46514      -24.47264       23.93312
C         63.45037      -23.79353       23.03261
O         63.81348      -23.40840       21.92817
C         64.92557      -25.83363       23.33721
C         63.76697      -26.84145       23.19801
O         65.91156      -26.41544       24.15153
H         63.13863      -25.34151       25.38071
H         65.34230      -23.79005       23.98156
H         65.34516      -25.67028       22.31927
H         66.64483      -25.75463       24.25093
H         63.33008      -27.10267       24.17847
H         62.95057      -26.44163       22.56689
H         64.13186      -27.78595       22.74545
N         62.14841      -23.63754       23.42616
C         61.10140      -23.06704       22.59637
C         60.86272      -23.91531       21.35693
O         61.61693      -24.83803       21.08035
C         61.34599      -21.55016       22.32170
C         61.42177      -20.77869       23.64385
O         60.28438      -21.00959       21.57908
H         61.84817      -23.97584       24.34820
H         60.15436      -23.14158       23.17491
H         62.29908      -21.40606       21.75958
H         60.66431      -20.32507       20.96709
H         61.37814      -19.68552       23.45145
H         60.55973      -21.04526       24.29461
H         62.36494      -21.00929       24.18022
N         59.78527      -23.65540       20.57395
C         59.51417      -24.34139       19.33605
C         58.16413      -25.06588       19.18553
O         58.06900      -25.72994       18.16133
C         59.72882      -23.32001       18.19656
C         61.23210      -23.05211       17.99787
C         61.47133      -22.19764       16.75469
C         62.94389      -21.79248       16.61802
N         63.17590      -21.11745       15.33915
H         59.20197      -22.86647       20.80765
H         60.24570      -25.16500       19.18580
H         59.19522      -22.36426       18.42451
H         59.32176      -23.71052       17.24254
H         61.75946      -24.02029       17.83727
H         61.65520      -22.56717       18.90426
H         60.86233      -21.26987       16.81246
H         61.15466      -22.78451       15.86436
H         63.61619      -22.67793       16.68763
H         63.18986      -21.10642       17.45931
H         63.27269      -21.83328       14.58195
H         62.38625      -20.47335       15.10296
H         64.05899      -20.56131       15.39290
N         57.06805      -25.08227       20.02353
C         56.74961      -24.38098       21.26903
C         56.82129      -22.87965       21.13596
O         57.38321      -22.20376       21.98884
C         57.34759      -25.07432       22.51233
C         56.72764      -24.55049       23.82330
C         56.83006      -25.57288       24.91481
O         57.59802      -25.38163       25.99160
O         56.05994      -26.51868       24.91052
H         56.28850      -25.66933       19.68300
H         55.65757      -24.55606       21.40832
H         58.45419      -25.03207       22.56445
H         57.05289      -26.14380       22.41424
H         55.63261      -24.39033       23.70091
H         57.15826      -23.56865       24.11442
N         56.22354      -22.28381       20.07080
C         56.28692      -20.85859       19.85222
H         55.88263      -20.31708       20.73218
H         57.34003      -20.55314       19.67089
H         55.68259      -20.59672       18.95832
H         55.71320      -22.86527       19.38874
Ca        56.91275      -26.65443       27.74588
O         54.04126      -27.53147       27.66993
H         54.18391      -27.47312       28.64501
H         53.41453      -28.28916       27.56634
O         59.00781      -28.08855       25.89971
H         59.37657      -27.95378       24.99077
H         59.76086      -27.89661       26.51078
O         59.35871      -25.91315       28.85343
H         58.67214      -25.32743       29.25387
H         60.21849      -25.52546       29.14596
O         56.42930      -29.55834       27.03989
H         56.63443      -29.65852       26.07667
H         55.73715      -30.24201       27.22164
O         56.42944      -24.18919       28.42409
H         57.15705      -23.88882       27.82371
H         55.59766      -23.88417       27.98700

Ca 1.70



