%chk=loop1.cluster90.chk
%nprocshared=48
%mem=10GB
%nosave
#b3lyp/svp scf=(tight,noincore) Test 
#IOP(5/87=12) Density=Current Pop=(MK,readradii) iop(6/33=2) iop(6/42=6)

loop1.cluster90 

   0  1 
204

C         38.14865       86.82408       30.21550
C         38.23826       86.67709       31.68660
O         39.30216       86.38896       32.17768
H         37.71792       87.81983       29.98432
H         39.16141       86.74634       29.76890
H         37.49486       86.01986       29.82530
N         37.13939       86.88975       32.44924
C         37.10671       86.81308       33.91114
C         37.17558       85.37932       34.42452
O         37.38559       85.18702       35.61568
C         35.82088       87.50268       34.46322
C         34.52724       87.05951       33.80732
O         34.23482       87.44966       32.68638
O         33.63527       86.33047       34.49558
H         36.29821       87.14738       31.93759
H         37.98232       87.36712       34.32657
H         35.87835       88.60343       34.32035
H         35.76178       87.32694       35.56069
N         36.95681       84.32572       33.58892
C         36.89809       82.94328       34.05172
C         38.27646       82.32674       33.91716
O         39.01126       82.72738       33.02422
C         35.86575       82.15365       33.20026
C         34.43631       82.74450       33.26881
C         33.72687       82.51464       34.62358
C         32.23906       82.94781       34.54816
N         31.45083       82.55108       35.72464
H         36.76494       84.50955       32.59502
H         36.54633       82.89841       35.09871
H         35.82505       81.08352       33.50143
H         36.18924       82.15060       32.13199
H         33.85004       82.23138       32.47440
H         34.44651       83.82984       33.02964
H         34.25475       83.06479       35.43109
H         33.77378       81.42738       34.84643
H         31.78675       82.45829       33.66097
H         32.15635       84.04773       34.40160
H         30.44358       82.76839       35.53548
H         31.52200       81.52094       35.89175
H         31.73887       83.07089       36.58465
N         38.71918       81.31362       34.71046
C         37.98879       80.72901       35.82890
C         37.94766       81.54593       37.13300
O         37.11047       81.19466       37.95360
C         38.58694       79.35011       36.20316
C         40.05750       79.44722       36.52780
O         41.00474       79.39806       35.53012
O         40.39438       79.45347       37.70228
H         39.61721       80.89801       34.44549
H         36.94098       80.51806       35.51200
H         38.45047       78.60096       35.40000
H         38.03133       78.95061       37.09008
N         38.83420       82.52002       37.52092
C         39.88816       83.14058       36.72245
C         40.71210       84.14707       37.55657
O         40.58590       84.15254       38.77272
H         38.72286       82.84782       38.49090
H         39.39322       83.69109       35.90995
H         40.56922       82.37294       36.29764
N         41.61289       85.01901       37.00624
C         41.86057       85.16403       35.58210
C         41.97723       86.62613       35.24375
O         42.83457       87.31661       35.77940
C         43.16243       84.48672       35.14623
C         43.22854       83.11201       35.70123
O         42.89166       82.15030       35.03236
O         43.56511       82.95244       36.99490
H         42.15618       85.61876       37.64666
H         41.05638       84.67973       34.98857
H         44.05683       85.02912       35.51247
H         43.20384       84.47469       34.03132
N         41.16188       87.15214       34.31558
C         41.28383       88.50788       33.81716
C         42.34039       88.63645       32.72245
O         42.18823       89.49769       31.86587
H         40.42123       86.55125       33.97960
H         41.47140       89.20802       34.65396
H         40.29935       88.79165       33.37565
N         43.41295       87.78299       32.66174
C         44.41933       87.80763       31.60444
C         44.28275       86.59419       30.69524
O         44.03012       85.49135       31.16246
C         45.84944       88.00095       32.16073
C         46.35974       86.90187       33.11228
O         45.88822       89.24186       32.81656
H         43.52301       87.06726       33.38147
H         44.24860       88.68854       30.95107
H         46.52893       88.02215       31.27385
H         46.81404       89.58863       32.73550
H         47.39125       87.15210       33.45076
H         45.73084       86.80788       34.02097
H         46.40686       85.92050       32.59830
N         44.38487       86.77826       29.34707
C         44.08903       85.76456       28.33680
C         45.32047       85.47945       27.50430
O         45.85687       86.37573       26.86519
C         42.87591       86.22636       27.46932
C         42.54749       85.35013       26.22472
C         42.96784       87.69389       27.01476
C         42.09762       83.92752       26.53441
H         44.66533       87.71269       29.01809
H         43.78109       84.81572       28.82485
H         41.98899       86.20118       28.13802
H         43.36009       85.32430       25.46095
H         41.67165       85.83667       25.74905
H         42.05004       87.96667       26.45377
H         42.97795       88.37485       27.88937
H         43.85584       87.87743       26.37875
H         42.95622       83.24497       26.66568
H         41.45453       83.91475       27.43645
H         41.49378       83.55600       25.67676
N         45.83368       84.21708       27.50523
C         47.02133       83.82629       26.75839
C         46.83899       82.49291       26.03658
O         47.77520       82.05324       25.38357
C         48.21707       83.78266       27.73571
C         48.18956       82.56916       28.66007
O         48.21605       84.93724       28.53691
H         45.40843       83.52974       28.13962
H         47.24720       84.59013       25.97946
H         49.17290       83.71557       27.16527
H         48.60708       85.67061       27.99940
H         47.23724       82.50842       29.22670
H         48.32230       81.63935       28.07048
H         49.03897       82.65255       29.36705
N         45.66559       81.78682       26.11920
C         45.41305       80.53982       25.41394
C         46.29157       79.40944       25.96361
O         47.09637       79.64463       26.85523
C         45.52366       80.76100       23.87602
C         44.65973       81.94795       23.39842
O         45.10596       79.60632       23.20057
H         44.88495       82.14548       26.67561
H         44.36008       80.25645       25.63002
H         46.58389       80.96600       23.62212
H         45.19922       79.77596       22.22927
H         44.89782       82.89434       23.92791
H         44.85336       82.12587       22.31899
H         43.58069       81.72189       23.53250
N         46.13416       78.13247       25.50769
C         46.94471       77.00605       25.94653
C         46.25100       75.89181       26.75646
O         46.95561       74.92216       27.00214
C         47.64214       76.38892       24.70451
C         48.62927       77.35636       24.04813
C         49.21196       76.76139       22.75705
C         50.29842       77.69025       22.21432
N         50.72752       77.30600       20.87033
H         45.47085       77.96157       24.75316
H         47.74035       77.34705       26.63789
H         46.87444       76.05696       23.97112
H         48.24288       75.50216       25.00198
H         49.44875       77.56611       24.77058
H         48.12435       78.31651       23.79920
H         48.38520       76.64915       22.01982
H         49.66820       75.76255       22.93730
H         51.16414       77.64649       22.91299
H         49.91033       78.73117       22.18263
H         51.17566       76.36181       20.88075
H         49.91088       77.30854       20.21611
H         51.42095       78.01079       20.52981
N         44.97532       75.85797       27.26986
C         43.83277       76.75047       27.11116
C         43.48330       76.98313       25.66999
O         43.13302       78.08970       25.27884
C         43.84407       77.94656       28.07044
C         44.06885       77.47360       29.53249
C         44.08314       78.61780       30.51352
O         44.69699       79.62476       30.20708
O         43.45746       78.50895       31.73552
H         44.76940       75.03313       27.85637
H         42.96069       76.15527       27.45762
H         42.86318       78.46702       27.99439
H         44.64330       78.64293       27.76876
H         45.06466       76.97645       29.57654
H         43.28605       76.74302       29.82968
N         43.51842       75.92212       24.82301
C         43.12992       76.00144       23.43815
H         42.21099       76.61209       23.33098
H         43.95415       76.40704       22.81332
H         42.89898       74.97137       23.09477
H         43.78527       75.00107       25.19871
Ca        42.75339       79.35091       33.88475
O         43.32525       78.26760       36.94765
H         43.09083       77.34076       36.71746
H         42.48200       78.68444       37.21772
O         41.77079       76.96099       34.12880
H         41.84650       76.18004       33.53044
H         41.61924       76.59597       35.03374
O         42.66605       81.82693       32.18651
H         42.39283       82.01868       31.25695
H         42.24036       82.54088       32.71957
O         45.37827       80.60836       32.96086
H         46.28048       80.60424       32.55965
H         44.78101       80.60253       32.18334
O         44.94161       80.19386       36.03764
H         44.72625       81.09927       36.33850
H         45.11439       79.74186       36.89642
O         44.85276       77.54134       34.23682
H         44.29603       76.90741       33.72011
H         45.72698       77.52909       33.77607
O         40.57126       79.53142       32.31432
H         40.72585       78.74275       31.73747
H         39.60471       79.51209       32.51722

Ca 1.70



