%chk=loop2.cluster63.chk
%nprocshared=48
%mem=10GB
%nosave
#b3lyp/svp scf=(tight,noincore) Test 
#IOP(5/87=12) Density=Current Pop=(MK,readradii) iop(6/33=2) iop(6/42=6)

loop2.cluster63 

   -2  1 
C        108.43695       61.41232       -5.27405
C        107.02695       61.83498       -5.56594
O        106.24024       60.95129       -5.87144
H        109.12405       62.19540       -4.92761
H        108.42282       60.61394       -4.50130
H        108.84581       60.98396       -6.21213
N        106.57002       63.12384       -5.50835
C        107.31864       64.31593       -5.09895
C        107.26836       65.44253       -6.12556
O        106.32349       65.51644       -6.88012
C        106.77823       64.82353       -3.74560
C        105.27472       65.06807       -3.61113
O        104.38685       64.70489       -4.57203
O        104.84788       65.44603       -2.53260
H        105.58562       63.25250       -5.74807
H        108.38640       64.09950       -4.93993
H        107.32873       65.75152       -3.47751
H        107.04343       64.05560       -2.98460
N        108.29586       66.34510       -6.21013
C        108.36906       67.48769       -7.13258
C        107.50731       68.69407       -6.75919
O        108.07360       69.76215       -6.56159
C        108.14296       67.09628       -8.59508
H        109.12431       66.17868       -5.61907
H        109.42151       67.85166       -7.08439
H        108.39623       67.96105       -9.24835
H        108.80415       66.24866       -8.86655
H        107.08670       66.82724       -8.79270
N        106.14360       68.62875       -6.68975
C        105.30721       69.81313       -6.50919
C        104.71704       69.88392       -5.11102
O        104.83377       68.93291       -4.35038
C        104.24634       69.90202       -7.63764
C        103.26309       68.75069       -7.68949
O        103.65486       67.49884       -8.02921
O        102.07593       68.97837       -7.52809
H        105.68048       67.72620       -6.78827
H        105.93684       70.72681       -6.58954
H        104.75893       69.96093       -8.62104
H        103.67606       70.84799       -7.50281
N        104.17340       71.05284       -4.66576
C        103.79997       71.26250       -3.27727
C        102.35258       70.97594       -2.97406
O        101.49743       71.19376       -3.82275
H        104.21112       71.87975       -5.28416
H        103.90541       72.34807       -3.06301
H        104.50603       70.76823       -2.57355
N        101.99952       70.60503       -1.71134
C        100.61959       70.54990       -1.23558
C        100.45524       71.35449        0.04414
O        101.43467       71.83781        0.60139
C        100.22503       69.08329       -0.97243
C         99.81055       68.41025       -2.24553
N         98.67809       68.79371       -2.88161
O        100.47275       67.49407       -2.68997
H        102.75207       70.40090       -1.03272
H         99.92038       71.00620       -1.97052
H         99.34895       68.99835       -0.30380
H        101.07390       68.55918       -0.47640
H         98.08050       69.53460       -2.48491
H         98.38528       68.32910       -3.75313
N         99.21323       71.49597        0.58883
C         98.98149       72.09228        1.89447
C         97.67755       72.85301        1.95372
O         97.05521       73.05376        0.91790
H         98.41603       71.04299        0.11276
H         99.81403       72.76151        2.20251
H         98.91454       71.26273        2.60945
N         97.17062       73.33002        3.12973
C         97.75590       73.07207        4.45806
C         97.58876       71.63083        4.93480
O         98.16577       71.29182        5.95913
C         97.07785       73.97458        5.53356
C         97.63619       75.39440        5.49986
O         95.68096       73.98252        5.34240
H         96.30893       73.89299        3.06864
H         98.84508       73.29404        4.43072
H         97.31286       73.59095        6.55535
H         95.24831       74.12289        6.22308
H         97.54177       75.84871        4.49378
H         97.10993       76.02390        6.24845
H         98.71162       75.35762        5.78497
N         96.76205       70.75685        4.29525
C         96.40678       69.43165        4.80020
C         95.65540       69.56921        6.12114
O         96.28958       69.86348        7.12497
C         97.60149       68.43204        4.87325
C         98.39812       68.35531        3.54534
C         97.08466       67.03719        5.27621
C         97.53593       68.24061        2.28514
H         96.28489       71.06496        3.43750
H         95.71783       69.01282        4.05274
H         98.33453       68.73158        5.65612
H         99.10278       67.49715        3.59795
H         99.02577       69.26034        3.44269
H         96.68165       67.06319        6.31107
H         96.28215       66.69466        4.59278
H         97.90507       66.28875        5.26193
H         96.81466       67.40404        2.36276
H         96.98317       69.18795        2.10847
H         98.18486       68.07649        1.40593
N         94.29521       69.45505        6.22349
C         93.38617       69.15696        5.11264
C         93.43132       67.69926        4.69245
O         93.84054       67.40987        3.57345
C         91.91915       69.58976        5.40863
C         91.25076       69.22965        6.72916
O         91.92111       68.67012        7.75548
O         90.07808       69.52202        6.88969
H         93.89292       69.68608        7.13844
H         93.67932       69.77347        4.23314
H         91.29078       69.18872        4.58081
H         91.87474       70.69600        5.34604
N         92.97616       66.72859        5.52506
C         92.93338       65.32123        5.18748
C         91.49873       64.79890        5.31333
O         90.68642       65.46622        5.95146
C         93.91769       64.59768        6.14205
C         93.56018       64.73740        7.60955
C         94.03244       65.82928        8.36459
C         92.75812       63.76820        8.23418
C         93.69548       65.94994        9.71699
C         92.42989       63.89077        9.58863
C         92.89561       64.98130       10.32831
H         92.64016       66.99241        6.45031
H         93.28150       65.17717        4.14660
H         94.92345       65.04060        5.98116
H         94.05455       63.52962        5.90888
H         94.65284       66.58847        7.90398
H         92.39072       62.91952        7.67151
H         94.05496       66.79424       10.29205
H         91.81383       63.13958       10.06540
H         92.63758       65.07485       11.37579
N         91.09823       63.59881        4.78982
C         91.93876       62.71753        3.99236
C         92.33192       63.22664        2.61798
O         91.91685       64.29770        2.19836
C         91.06442       61.46626        3.83542
C         90.25273       61.48685        5.11785
C         89.86269       62.96063        5.18492
H         92.83272       62.46409        4.57997
H         90.33571       61.61751        3.00348
H         91.63804       60.53662        3.63636
H         89.40241       60.77501        5.14579
H         90.94390       61.26021        5.96383
H         89.07137       63.18543        4.43479
H         89.52290       63.22168        6.21236
N         93.11597       62.42526        1.84405
C         93.49277       62.70641        0.47276
C         95.00592       62.67932        0.16838
O         95.30684       62.68244       -1.01827
C         92.75424       61.64909       -0.39621
C         91.30807       62.04541       -0.74452
C         91.27038       63.14114       -1.78855
O         91.66773       64.39402       -1.49548
O         90.87969       62.88871       -2.91713
H         93.41026       61.51751        2.23477
H         93.18120       63.71510        0.15160
H         92.76181       60.67399        0.14460
H         93.25345       61.45968       -1.36886
H         90.71914       62.33357        0.15326
H         90.82833       61.14722       -1.18977
N         96.04379       62.72769        1.06750
C         96.00417       62.85666        2.51120
H         96.50101       63.80975        2.78996
H         95.02299       62.88361        2.98038
H         96.58153       62.02220        2.96072
H         96.99440       62.72408        0.66391
Ca       103.80761       65.80608       -6.50400
O        104.83769       64.85526       -9.13499
H        105.73439       64.80917       -9.55101
H        104.21163       64.97619       -9.89083
O        100.79772       66.27419       -7.13019
H        100.85385       67.09650       -6.58640
H         99.83842       66.21117       -7.35772
O        102.29767       66.77996       -4.66336
H        102.97806       67.49242       -4.71488
H        102.30549       66.48987       -3.72371
O        101.89180       63.88934       -8.63458
H        101.50536       64.46092       -9.34334
H        101.98302       62.99823       -9.05639
O        104.00734       62.49575       -7.42514
H        104.37008       62.26581       -8.31627
H        104.11589       61.67103       -6.89146
O        101.39528       63.70115       -5.47591
H        100.70098       63.13439       -5.89679
H        100.96014       64.06654       -4.66501

Ca 1.70



