%chk=loop2.cluster151.chk
%nprocshared=48
%mem=10GB
%nosave
#b3lyp/svp scf=(tight,noincore) Test 
#IOP(5/87=12) Density=Current Pop=(MK,readradii) iop(6/33=2) iop(6/42=6)

loop2.cluster151 

   -2  1 
C         53.22634       47.67891       19.61972
C         54.03511       47.94934       18.39373
O         53.67424       47.47508       17.32433
H         52.31291       47.10138       19.35922
H         53.82755       47.09202       20.34542
H         52.92713       48.64446       20.07373
N         55.17212       48.69939       18.47144
C         55.97611       48.95416       17.28931
C         55.24040       49.95201       16.41309
O         55.06136       51.09154       16.82382
C         57.38178       49.46584       17.66260
C         58.33990       49.25595       16.52293
O         58.61625       48.00272       16.10761
O         58.89094       50.20464       15.99109
H         55.47891       49.05928       19.38833
H         56.11360       47.97178       16.78338
H         57.78171       48.87595       18.51494
H         57.33767       50.53186       17.97956
N         54.74398       49.57022       15.20740
C         53.93957       50.45584       14.37190
C         52.84816       49.67513       13.63931
O         53.06007       48.51580       13.31608
C         54.84159       51.19997       13.37920
H         54.89883       48.59946       14.90082
H         53.43082       51.20236       15.01871
H         55.56376       50.50217       12.90878
H         54.25081       51.67857       12.56972
H         55.40292       52.00104       13.90737
N         51.64659       50.24546       13.30834
C         51.35048       51.65669       13.53241
C         50.72775       51.92463       14.89493
O         50.28595       51.00144       15.56514
C         50.51119       52.25089       12.37073
C         49.05549       51.84014       12.33883
O         48.67705       50.57239       12.09031
O         48.19688       52.68788       12.51046
H         50.96890       49.67414       12.78127
H         52.29464       52.22780       13.48379
H         50.99670       52.00929       11.40130
H         50.53172       53.35660       12.48375
N         50.62834       53.21107       15.33057
C         49.84272       53.62754       16.47746
C         50.63230       54.50568       17.42459
O         51.85247       54.42312       17.42894
H         51.05760       53.95494       14.76164
H         49.38239       52.78350       17.04135
H         49.03489       54.22238       16.02641
N         50.02914       55.35650       18.30790
C         48.59779       55.66122       18.35774
C         47.94572       54.99432       19.54767
O         46.82174       55.35345       19.87274
C         48.43839       57.19699       18.38947
C         49.05103       57.79256       17.14672
N         50.23035       58.45204       17.21401
O         48.50206       57.63749       16.06568
H         50.63198       55.85500       18.98284
H         48.03092       55.30301       17.47856
H         48.95284       57.58202       19.29648
H         47.37260       57.51640       18.45545
H         50.72528       58.54997       18.11252
H         50.66906       58.82320       16.35878
N         48.56837       53.97069       20.21558
C         47.93464       53.23377       21.29565
C         47.00985       52.11988       20.80604
O         47.14221       50.99356       21.26498
H         49.53190       53.70734       19.96760
H         47.39852       53.94497       21.95971
H         48.72855       52.76450       21.91813
N         46.00687       52.38183       19.92361
C         44.96338       51.43115       19.55411
C         45.38667       50.46360       18.48500
O         45.99786       50.88205       17.51532
C         43.72733       52.19243       19.02273
C         43.05817       52.98439       20.14605
O         44.09984       53.05406       17.97120
H         45.91770       53.32894       19.56039
H         44.62628       50.86317       20.45020
H         42.99452       51.43313       18.66237
H         43.30992       53.17898       17.38684
H         42.84894       52.30974       21.00509
H         43.70580       53.81640       20.49332
H         42.09308       53.39298       19.78493
N         44.92187       49.18158       18.50668
C         45.15673       48.22317       17.43174
C         43.90051       47.93775       16.63625
O         42.80531       48.34499       17.01884
C         45.76687       46.89047       17.96897
C         47.25868       47.08624       18.29881
C         44.96070       46.33022       19.16301
C         47.94703       45.79281       18.73454
H         44.30967       48.90427       19.29069
H         45.84444       48.65641       16.67302
H         45.72962       46.13148       17.15747
H         47.38851       47.86175       19.08246
H         47.76788       47.43348       17.37126
H         45.06700       46.98082       20.05675
H         43.88456       46.24357       18.90390
H         45.31053       45.31839       19.44756
H         47.80630       45.00457       17.96546
H         49.03289       45.97769       18.86331
H         47.54445       45.43489       19.70347
N         44.01179       47.23826       15.47573
C         42.90505       46.91589       14.59863
C         43.24989       45.70315       13.74868
O         44.22549       45.72324       13.00458
C         42.49842       48.09894       13.68325
C         43.66577       48.69608       12.93417
O         44.49439       49.56454       13.54420
O         43.87286       48.38526       11.77317
H         44.95318       46.91774       15.19476
H         42.01641       46.64229       15.21233
H         41.97534       48.89827       14.24834
H         41.76141       47.69734       12.94961
N         42.42562       44.62643       13.76753
C         42.56400       43.48905       12.87389
C         43.65508       42.52453       13.34996
O         43.56899       42.05885       14.47953
C         41.20960       42.75184       12.83655
C         41.25932       41.48047       12.03586
C         41.32471       40.25323       12.71210
C         41.25636       41.50019       10.63142
C         41.39748       39.05964       11.99869
C         41.31291       40.29701        9.91825
C         41.38794       39.07880       10.60263
H         41.58859       44.67298       14.37286
H         42.74182       43.86124       11.84386
H         40.40913       43.41928       12.44377
H         40.93142       42.50413       13.88389
H         41.34005       40.22755       13.79493
H         41.20172       42.43978       10.09428
H         41.46278       38.12095       12.53194
H         41.30121       40.30708        8.83629
H         41.43946       38.14902       10.05303
N         44.66167       42.09906       12.51968
C         45.57987       41.02463       12.86497
C         46.85521       41.57634       13.49425
O         47.86043       40.88014       13.53536
C         45.81653       40.41651       11.47676
C         45.91301       41.64789       10.58371
C         44.80627       42.54015       11.14441
H         45.15088       40.23965       13.52533
H         46.66587       39.70527       11.39893
H         44.88414       39.87189       11.19495
H         46.90196       42.11662       10.77494
H         45.81010       41.44642        9.49437
H         45.07550       43.61836       11.06399
H         43.86687       42.33075       10.60017
N         46.87557       42.84173       13.99513
C         48.07402       43.49226       14.50185
C         48.46795       43.05445       15.89981
O         49.51550       43.48682       16.36219
C         47.82949       45.00921       14.46202
C         47.73059       45.45664       12.99176
C         47.37799       46.89577       12.85372
O         47.08990       47.63391       13.94135
O         47.33448       47.40010       11.74322
H         46.01471       43.40193       13.95601
H         48.92852       43.26796       13.82447
H         48.65915       45.56872       14.94390
H         46.89032       45.23997       15.01913
H         46.96364       44.87377       12.43707
H         48.71734       45.28227       12.51245
N         47.69872       42.20010       16.63438
C         48.07763       41.76259       17.96406
H         49.01414       42.23930       18.32483
H         47.26823       42.01034       18.68153
H         48.23001       40.66394       17.95129
H         46.81592       41.83823       16.24876
Ca        46.56983       49.94322       12.69083
O         45.66497       50.60509       10.06966
H         44.68833       50.74131       10.15850
H         45.84632       50.68925        9.10081
O         45.30371       52.50675       12.85842
H         45.70700       53.23110       12.31836
H         44.33273       52.69228       12.83781
O         47.27089       50.35370       15.22705
H         47.44639       51.21185       15.68208
H         48.12499       50.13697       14.78172

Ca 1.70



