%chk=loop3.cluster212.chk
%nprocshared=48
%mem=10GB
%nosave
#b3lyp/svp scf=(tight,noincore) Test 
#IOP(5/87=12) Density=Current Pop=(MK,readradii) iop(6/33=2) iop(6/42=6)

loop3.cluster212 

   0  1 
C         82.20925       53.53182       29.00334
C         82.28472       52.42643       30.01817
O         81.33675       52.24168       30.76819
H         81.73359       54.43165       29.44678
H         83.22067       53.81057       28.63836
H         81.59975       53.19295       28.13866
N         83.35900       51.58728       30.03555
C         83.46887       50.44101       30.93304
C         84.80952       50.47308       31.66882
O         85.81877       50.86591       31.09644
C         83.20392       49.15044       30.12286
C         83.41335       47.89945       30.92187
O         82.43678       47.10856       31.38923
O         84.54296       47.54976       31.13606
H         84.09999       51.72331       29.32914
H         82.66531       50.46696       31.70399
H         83.89074       49.10011       29.25058
H         82.15889       49.19182       29.75721
N         84.85565       50.13335       32.98797
C         86.03740       50.30148       33.83629
C         87.21751       49.38103       33.51583
O         88.32271       49.67846       33.94263
C         85.61484       50.13368       35.30947
C         84.69728       51.29913       35.72918
C         84.30262       51.20553       37.20627
C         83.71225       52.52675       37.72979
N         82.35577       52.78365       37.24641
H         83.97655       49.81614       33.42686
H         86.41232       51.34099       33.70051
H         86.51391       50.15407       35.96204
H         85.10636       49.15110       35.44874
H         83.78639       51.36333       35.09634
H         85.28715       52.22984       35.58131
H         85.23170       51.02647       37.78582
H         83.61019       50.35193       37.38437
H         84.38696       53.36590       37.44452
H         83.68510       52.48408       38.83945
H         82.30861       52.77236       36.20365
H         81.70353       52.06880       37.64319
H         82.05698       53.72752       37.58506
N         87.04274       48.22957       32.81703
C         88.12342       47.31084       32.46061
C         88.23499       47.09268       30.93596
O         89.16659       46.41390       30.52093
C         87.89803       45.97596       33.22887
C         86.59374       45.31788       32.82789
O         86.44880       44.94812       31.68250
O         85.56935       45.13633       33.68362
H         86.09710       47.96386       32.58816
H         89.10110       47.72950       32.78649
H         87.89850       46.20129       34.31767
H         88.73570       45.27093       33.02932
N         87.32832       47.61936       30.04676
C         87.40481       47.42633       28.60073
C         86.21485       46.64183       28.05296
O         85.61425       47.06244       27.07490
H         86.55797       48.19069       30.39283
H         88.33691       46.89494       28.31918
H         87.43771       48.42565       28.11352
N         85.86814       45.44856       28.60931
C         84.77567       44.59423       28.12861
C         83.42477       45.16074       28.54787
O         83.18882       45.27819       29.73635
C         85.00080       43.17632       28.71219
C         83.97534       42.13094       28.35939
N         84.13653       40.86257       28.80013
O         83.00471       42.41424       27.67863
H         86.43629       45.11756       29.39434
H         84.83619       44.50578       27.02280
H         85.05758       43.23559       29.82086
H         85.98371       42.81837       28.33497
H         84.96615       40.60453       29.35515
H         83.43638       40.13970       28.57867
N         82.48699       45.53034       27.61967
C         81.24212       46.20774       27.98275
C         80.29141       45.41918       28.86008
O         79.41769       46.03318       29.46017
H         82.69581       45.40617       26.61926
H         80.69066       46.53246       27.07445
H         81.52119       47.12841       28.53831
N         80.38930       44.06587       29.00684
C         79.60451       43.34473       30.00540
C         80.02476       43.78773       31.40040
O         80.97330       44.55125       31.54319
C         79.79143       41.81677       29.86299
C         79.03359       41.21684       28.69941
C         79.69574       40.84425       27.51950
C         77.65528       40.95717       28.82481
C         78.99335       40.21530       26.48415
C         76.96031       40.31074       27.79710
C         77.63001       39.93235       26.62509
O         76.97681       39.28524       25.63761
H         81.05890       43.54944       28.42746
H         78.52442       43.58947       29.88517
H         79.42212       41.28086       30.76389
H         80.87747       41.58768       29.80381
H         80.75301       41.03459       27.40362
H         77.12860       41.22314       29.73341
H         79.51327       39.92883       25.57882
H         75.90620       40.09052       27.91777
H         76.04587       39.03252       25.72213
N         79.30914       43.37771       32.47973
C         79.51726       43.85900       33.83931
C         80.82810       43.39685       34.46130
O         81.87852       43.43754       33.84985
C         79.22552       45.38104       34.00278
C         79.43032       45.83299       35.47809
C         77.76921       45.63647       33.56782
C         79.19876       47.32403       35.71370
H         78.50974       42.74357       32.32175
H         78.73129       43.36569       34.44998
H         79.91616       45.96913       33.35969
H         80.47417       45.62794       35.77528
H         78.77267       45.25582       36.16282
H         77.60781       45.31769       32.51788
H         77.07577       45.05981       34.22065
H         77.50294       46.70804       33.62817
H         79.82311       47.92682       35.02150
H         78.13098       47.58637       35.57985
H         79.47913       47.57732       36.75824
N         80.78542       43.03646       35.76981
C         81.91478       42.56385       36.55648
C         81.54457       41.29020       37.33822
O         82.44330       40.66410       37.89326
C         82.31030       43.70698       37.50099
O         81.17927       44.16091       38.19681
H         79.90337       43.19450       36.25969
H         82.78068       42.32892       35.89793
H         82.70358       44.53761       36.87288
H         83.09878       43.38468       38.21267
H         81.44448       44.99271       38.66591
N         80.24529       40.86808       37.46286
C         79.79346       39.67101       38.15034
C         80.35570       39.48298       39.56128
O         80.92519       38.43594       39.82448
C         80.01475       38.46521       37.23379
H         79.48459       41.42282       37.05919
H         78.68869       39.74527       38.26611
H         81.09239       38.31658       37.01906
H         79.59015       37.54858       37.69445
H         79.47934       38.64330       36.27440
N         80.20728       40.41197       40.55495
C         79.61692       41.73622       40.39640
C         78.40245       41.90362       41.29505
O         78.23303       41.08585       42.19099
C         80.70634       42.74064       40.79390
H         80.57608       40.16628       41.49049
H         79.29560       41.90310       39.36227
H         80.37765       43.78467       40.69298
H         81.01666       42.57122       41.84985
H         81.60519       42.59233       40.16054
N         77.50789       42.93584       41.18630
C         77.46054       43.95843       40.13490
C         76.05580       44.00158       39.53851
O         75.91145       43.88864       38.32752
C         77.83587       45.32625       40.73794
C         77.78521       46.47235       39.71060
C         78.44013       47.70560       40.26256
O         79.64688       47.72209       40.45157
O         77.70719       48.80071       40.53614
H         76.78293       42.98942       41.91522
H         78.19168       43.76009       39.32329
H         78.86403       45.24455       41.13451
H         77.17053       45.57759       41.59188
H         76.72134       46.68279       39.46620
H         78.31392       46.20132       38.77053
N         74.96923       44.18654       40.34489
C         73.61809       44.26136       39.83265
H         72.91355       44.43457       40.67578
H         73.52625       45.10865       39.12168
H         73.33560       43.31146       39.33109
H         75.10021       44.28057       41.36168
Ca        83.51210       45.68552       32.83290
O         83.98396       42.46611       32.25127
H         84.92512       42.16611       32.31041
H         83.45078       41.66107       32.47119
O         82.37257       46.78370       34.80141
H         82.58404       46.62345       35.75149
H         82.45952       47.75660       34.65701

Ca 1.70



