%chk=loop1.cluster112.chk
%nprocshared=48
%mem=10GB
%nosave
#b3lyp/svp scf=(tight,noincore) Test 
#IOP(5/87=12) Density=Current Pop=(MK,readradii) iop(6/33=2) iop(6/42=6)

loop1.cluster112 

   0  1 
189

C         45.99476       -7.35071       28.46446
C         46.66510       -8.25252       29.43426
O         47.51336       -8.98599       29.00345
H         45.09264       -6.89586       28.90617
H         46.72813       -6.56771       28.17138
H         45.72761       -7.93285       27.55440
N         46.40269       -8.19888       30.76999
C         47.11505       -9.00992       31.77325
C         46.15404       -9.71022       32.70105
O         46.44528       -9.85475       33.88375
C         48.10093       -8.13004       32.57662
C         47.49263       -6.92895       33.24308
O         46.86161       -6.12206       32.58423
O         47.78910       -6.64915       34.52632
H         45.70942       -7.51005       31.08678
H         47.72301       -9.80453       31.29568
H         48.87610       -7.74721       31.88847
H         48.60141       -8.75512       33.34714
N         44.94192      -10.11128       32.24177
C         43.90938      -10.57250       33.13840
C         43.31952      -11.87872       32.64258
O         42.12846      -11.89221       32.36458
C         42.86955       -9.43111       33.24887
C         43.58869       -8.15191       33.71004
C         42.62198       -7.10738       34.24201
C         43.36339       -6.02490       35.03592
N         44.25715       -5.25420       34.18205
H         44.69763       -9.96265       31.25242
H         44.28231      -10.70188       34.17078
H         42.10328       -9.71575       34.00317
H         42.34801       -9.24244       32.28342
H         44.19869       -7.73454       32.87729
H         44.27930       -8.41486       34.53955
H         41.92458       -7.60467       34.94710
H         42.03846       -6.66143       33.40927
H         43.94512       -6.49344       35.86957
H         42.60751       -5.34795       35.47370
H         43.73500       -4.88406       33.35610
H         44.69755       -4.47543       34.72188
H         45.01185       -5.87822       33.85718
N         44.02675      -13.04861       32.49417
C         45.43026      -13.34096       32.82264
C         45.81338      -13.14032       34.29112
O         44.98086      -12.69513       35.06389
C         46.40835      -12.76174       31.76578
C         47.11243      -13.82739       30.95464
O         48.33705      -13.60492       30.48146
O         46.60181      -14.91992       30.76464
H         43.49734      -13.83982       32.09960
H         45.49589      -14.44626       32.75141
H         47.16800      -12.12671       32.26464
H         45.87279      -12.12049       31.04747
N         47.01785      -13.54405       34.80200
C         48.11206      -14.08253       34.00219
C         49.19890      -14.70533       34.84301
O         48.97650      -14.97729       36.01394
H         47.15436      -13.44888       35.81981
H         48.56338      -13.25779       33.42886
H         47.75645      -14.88775       33.32318
N         50.40713      -15.03377       34.31123
C         50.85180      -14.64224       32.97463
C         51.26059      -13.17988       32.99489
O         50.81773      -12.42557       32.14662
C         52.03253      -15.51056       32.57983
C         52.51290      -15.36157       31.14507
O         53.56919      -15.88924       30.86794
O         51.96507      -14.55669       30.19993
H         51.07228      -15.53788       34.91883
H         50.06988      -14.84994       32.21275
H         51.75138      -16.57828       32.70280
H         52.86712      -15.31868       33.30339
N         52.08445      -12.69301       33.97126
C         52.30876      -11.26488       34.12759
C         53.43798      -10.73310       33.29855
O         53.95943       -9.67315       33.62131
H         52.42170      -13.32297       34.71292
H         52.40203      -10.98300       35.19569
H         51.40195      -10.71118       33.79743
N         53.77447      -11.34403       32.13123
C         54.54121      -10.67307       31.10593
C         53.75646      -10.69379       29.82219
O         52.84918      -11.50048       29.64945
C         55.94830      -11.24652       30.94568
C         55.92971      -12.70081       30.48302
O         56.59219      -11.15007       32.19163
H         53.36745      -12.25549       31.89625
H         54.67059       -9.60298       31.37922
H         56.48333      -10.62639       30.18409
H         57.56875      -11.11521       32.02956
H         56.97651      -13.03422       30.34460
H         55.41959      -13.31833       31.25004
H         55.40322      -12.82860       29.51129
N         54.02197       -9.74899       28.90213
C         53.27425       -9.61210       27.67637
C         54.25160       -9.54494       26.56231
O         54.75794       -8.47649       26.24907
C         52.27161       -8.43657       27.72760
C         51.57028       -8.29691       26.35505
C         52.91927       -7.10106       28.16187
C         50.32686       -7.43673       26.40459
H         54.78426       -9.08791       29.10004
H         52.62660      -10.50593       27.51140
H         51.53368       -8.73428       28.50116
H         51.25980       -9.29386       25.97291
H         52.29014       -7.86036       25.62479
H         53.31157       -6.53950       27.29114
H         52.18766       -6.46561       28.70209
H         53.76693       -7.25461       28.85122
H         50.52251       -6.48723       26.94019
H         50.00508       -7.22330       25.36245
H         49.52762       -8.00416       26.92327
N         54.59667      -10.69277       25.93953
C         55.43519      -10.71165       24.75069
C         54.73581      -11.38186       23.59026
O         55.31151      -11.44121       22.51471
C         56.75774      -11.44559       25.03773
C         56.57005      -12.94571       25.30425
O         57.39439      -10.85338       26.13716
H         54.22596      -11.57701       26.32559
H         55.66732       -9.67002       24.44896
H         57.41927      -11.37049       24.14240
H         57.90805      -10.08173       25.77982
H         55.74678      -13.14023       26.02004
H         56.35586      -13.48683       24.36294
H         57.50859      -13.37010       25.70321
N         53.50522      -11.94600       23.74844
C         52.83097      -12.76270       22.76272
C         53.44565      -14.13408       22.66381
O         54.57724      -14.36226       23.06408
C         52.64406      -12.10906       21.36370
C         52.18147      -10.66015       21.50180
O         51.69189      -12.84584       20.63303
H         53.00353      -11.84506       24.63911
H         51.81840      -12.93627       23.18929
H         53.60675      -12.13043       20.80498
H         51.39603      -12.31213       19.85133
H         53.03039      -10.04317       21.85367
H         51.86844      -10.25942       20.51542
H         51.33173      -10.59845       22.21285
N         52.70188      -15.10506       22.10072
C         53.16504      -16.42060       21.79971
C         52.40062      -17.59868       22.40289
O         52.92674      -18.68812       22.21012
C         53.20516      -16.49163       20.26556
C         54.43469      -15.71895       19.77221
C         54.66720      -16.00594       18.29654
C         56.04369      -15.52329       17.83514
N         56.18812      -15.71095       16.39074
H         51.80088      -14.84445       21.73953
H         54.19451      -16.58002       22.19207
H         52.27663      -16.05882       19.81293
H         53.28065      -17.54557       19.93245
H         55.32424      -16.06344       20.34329
H         54.31606      -14.62615       19.95731
H         53.85161      -15.53421       17.71440
H         54.64625      -17.10780       18.12735
H         56.81835      -16.12361       18.36874
H         56.19304      -14.45109       18.09117
H         55.74025      -14.90763       15.89357
H         57.20114      -15.75172       16.13660
H         55.73151      -16.59994       16.08146
N         51.22936      -17.60384       23.12939
C         50.24632      -16.56710       23.47743
C         49.74001      -15.78118       22.29587
O         49.61095      -14.56221       22.35554
C         50.60153      -15.79318       24.75428
C         49.36785      -15.12762       25.41243
C         49.77441      -14.44043       26.67745
O         50.31200      -13.34487       26.63805
O         49.61737      -15.07075       27.85691
H         50.94246      -18.54667       23.43773
H         49.35315      -17.15883       23.77265
H         51.41844      -15.07319       24.55702
H         50.95572      -16.54906       25.49037
H         48.64010      -15.92456       25.68433
H         48.81488      -14.41878       24.75857
N         49.43005      -16.45636       21.16425
C         48.95509      -15.81474       19.96480
H         48.03765      -15.23014       20.18011
H         49.74022      -15.15608       19.53509
H         48.71082      -16.60638       19.22618
H         49.54155      -17.47873       21.16027
Ca        50.31521      -13.13930       29.70498
O         48.24603      -11.93960       28.12612
H         47.90523      -11.05517       28.35927
H         47.42092      -12.47793       28.10836
O         50.10259      -10.31592       30.12964
H         49.38787       -9.89025       29.62177
H         50.57790       -9.53785       30.50113

Ca 1.70



