%chk=loop1.cluster24.chk
%nprocshared=48
%mem=10GB
%nosave
#b3lyp/svp scf=(tight,noincore) Test 
#IOP(5/87=12) Density=Current Pop=(MK,readradii) iop(6/33=2) iop(6/42=6)

loop1.cluster24 

   0  1 
C         79.22485       82.57593       85.89201
C         80.58814       83.19061       85.92634
O         80.72421       84.34265       85.56725
H         78.47417       83.29450       85.49695
H         79.25222       81.68598       85.22988
H         78.92935       82.26870       86.91633
N         81.64996       82.45569       86.35913
C         83.03340       82.94118       86.41323
C         83.78167       82.86116       85.07579
O         84.96281       83.17962       85.05187
C         83.82188       82.25189       87.54848
C         83.98700       80.76704       87.42773
O         85.10704       80.29574       87.34091
O         82.92419       79.94416       87.51384
H         81.44521       81.50774       86.68755
H         83.05551       83.96694       86.77291
H         83.32908       82.46763       88.52040
H         84.83488       82.71503       87.58728
N         83.17912       82.42586       83.93056
C         83.94376       82.10157       82.72182
C         83.98916       83.25368       81.74225
O         82.93031       83.72743       81.35717
C         83.30627       80.89143       82.02090
C         83.28990       79.63702       82.90054
C         84.70069       79.12035       83.24987
C         84.64349       77.78014       83.99478
N         84.10806       77.91802       85.34842
H         82.18308       82.16542       83.95958
H         84.96223       81.80154       82.99864
H         83.85135       80.66377       81.08001
H         82.25727       81.14000       81.74565
H         82.76109       78.84667       82.32738
H         82.70410       79.84910       83.81641
H         85.27665       79.84553       83.86420
H         85.25141       78.95941       82.29752
H         85.67474       77.37012       84.06902
H         84.02735       77.06434       83.41061
H         83.98457       76.97168       85.77108
H         84.79992       78.43997       85.92434
H         83.18583       78.40530       85.36187
N         85.15664       83.76832       81.24501
C         86.50703       83.29597       81.53343
C         87.48760       84.45225       81.31194
O         88.28163       84.39423       80.38297
C         86.82703       82.06381       80.64555
C         88.21143       81.49163       80.85515
O         88.58805       80.55946       80.16338
O         89.03971       81.99547       81.79241
H         85.07935       84.53242       80.56896
H         86.63240       83.00819       82.59640
H         86.72039       82.35420       79.57769
H         86.10342       81.25065       80.85488
N         87.54522       85.52693       82.15665
C         86.66895       85.71535       83.31005
C         86.27762       87.17741       83.48309
O         86.95117       88.03317       82.92527
H         88.30217       86.21150       82.00304
H         87.22073       85.42789       84.22995
H         85.80134       85.04954       83.26845
N         85.26238       87.58480       84.30470
C         84.25517       86.69114       84.87768
C         83.49015       87.35060       86.04506
O         83.78256       88.46833       86.44098
C         83.26768       86.24434       83.74685
C         82.63749       87.41129       83.02308
O         82.52426       87.38114       81.67817
O         82.65800       88.50268       83.56018
H         85.13914       88.59988       84.43509
H         84.75268       85.80416       85.32465
H         82.48536       85.56700       84.13366
H         83.79913       85.65490       82.98630
N         82.50745       86.64136       86.65877
C         81.75265       87.06109       87.82365
C         80.55793       87.92379       87.50242
O         79.86888       88.31406       88.43823
H         82.31288       85.72563       86.30351
H         82.42821       87.50226       88.58423
H         81.31056       86.14543       88.28222
N         80.20102       88.22384       86.21801
C         79.00612       88.99760       85.89160
C         78.07854       88.17430       85.02179
O         78.55211       87.32912       84.27721
C         79.40261       90.31622       85.17649
C         78.24534       91.30280       85.08370
O         79.84462       90.08233       83.87363
H         80.77885       87.87053       85.43988
H         78.47007       89.27537       86.82652
H         80.20621       90.82332       85.75642
H         80.71706       89.63970       83.94054
H         78.59182       92.21249       84.54878
H         77.39624       90.87475       84.51234
H         77.91094       91.58869       86.10160
N         76.73815       88.36590       85.04826
C         75.82720       87.66418       84.15130
C         74.84008       88.66301       83.58227
O         74.07666       89.27941       84.31770
C         75.23453       86.39280       84.81090
C         74.02816       85.78025       84.04931
C         74.86706       86.63566       86.27568
C         74.31975       85.32090       82.61817
H         76.34651       89.04534       85.72364
H         76.39777       87.25845       83.28632
H         76.04593       85.62839       84.83380
H         73.18183       86.50047       84.03205
H         73.69901       84.87794       84.60704
H         74.46303       85.70467       86.72284
H         75.78556       86.89028       86.84981
H         74.13171       87.45782       86.37078
H         75.14808       84.58242       82.60177
H         73.40919       84.83091       82.20739
H         74.57157       86.17054       81.95707
N         74.88121       88.91177       82.24858
C         74.12729       89.94471       81.56034
C         73.34275       89.37619       80.36972
O         72.39506       90.00763       79.92670
C         75.19811       90.94638       81.07105
C         74.65832       92.24299       80.49034
O         76.02014       90.32428       80.10975
H         75.58956       88.40234       81.70572
H         73.42418       90.45073       82.26343
H         75.79967       91.24223       81.96656
H         76.93103       90.24337       80.49567
H         74.09965       92.80212       81.26897
H         75.52387       92.86106       80.16567
H         74.00860       92.05497       79.61306
N         73.74408       88.21417       79.76225
C         73.17770       87.65141       78.54968
C         73.56791       88.44997       77.32446
O         73.78824       89.65100       77.39731
C         71.67088       87.31779       78.62905
C         71.39533       86.41037       79.84416
O         71.25196       86.71930       77.41841
H         74.53656       87.69104       80.13818
H         73.69968       86.67470       78.41685
H         71.07636       88.24542       78.75277
H         71.00900       85.76782       77.56305
H         71.67169       86.92705       80.78670
H         70.31738       86.15197       79.88806
H         71.98793       85.47214       79.76681
N         73.73130       87.77651       76.15591
C         74.07188       88.37045       74.88189
C         75.43054       88.00503       74.24649
O         75.79578       88.77160       73.36489
C         72.92960       88.04080       73.87687
C         71.95842       89.19593       73.62680
C         71.21915       89.62240       74.89626
C         70.23414       90.75836       74.61661
N         69.48071       91.08157       75.82695
H         73.51624       86.79012       76.17076
H         74.15218       89.47296       75.00699
H         72.34951       87.16181       74.23260
H         73.34337       87.74275       72.88929
H         71.21069       88.85259       72.87713
H         72.52135       90.04984       73.19245
H         71.93768       89.97594       75.65968
H         70.66623       88.74563       75.29655
H         69.52553       90.45032       73.81678
H         70.78948       91.65918       74.26818
H         68.79076       91.83645       75.61313
H         68.96263       90.23452       76.15726
H         70.12930       91.40979       76.57924
N         76.24582       86.91955       74.48989
C         76.11359       85.78926       75.40799
C         74.81940       85.02888       75.23304
O         74.18453       84.66172       76.21455
C         76.54992       86.17494       76.84006
C         78.03144       86.59641       76.79496
C         78.61632       86.87037       78.13294
O         79.58826       86.04472       78.60062
O         78.28660       87.87587       78.73695
H         77.08870       86.86998       73.89398
H         76.87143       85.03849       75.08408
H         76.47012       85.28325       77.50063
H         75.92535       86.98446       77.26451
H         78.17980       87.49657       76.15812
H         78.61875       85.76290       76.35632
N         74.37732       84.73569       73.97981
C         73.06550       84.17547       73.73675
H         72.31203       84.98657       73.78631
H         73.02082       83.75404       72.71189
H         72.80342       83.39603       74.48088
H         74.95216       85.00246       73.16639
Ca        81.06283       86.25998       80.33386
O         81.98874       87.54157       78.07269
H         81.42460       88.28393       78.40551
H         82.52649       87.92907       77.34063
O         82.18800       84.39689       78.05390
H         83.05767       84.42525       77.58231
H         81.55218       84.05728       77.37617
O         80.14363       83.23783       80.88232
H         80.29722       82.66105       81.67291
H         80.20127       82.62631       80.10861
O         84.00003       86.32407       79.47078
H         84.64361       86.94273       79.89655
H         84.53902       85.81529       78.81471
O         80.17415       85.24538       82.70429
H         80.37945       84.45377       83.25306
H         80.21189       86.00126       83.33379
O         79.49179       87.88745       81.70729
H         79.28403       88.76336       82.08829
H         79.15887       87.98325       80.79289

Ca 1.70



