%chk=loop3.cluster104.chk
%nprocshared=48
%mem=10GB
%nosave
#b3lyp/svp scf=(tight,noincore) Test 
#IOP(5/87=12) Density=Current Pop=(MK,readradii) iop(6/33=2) iop(6/42=6)

loop3.cluster104 

   0  1 
C         52.63625       56.45089       41.47503
C         53.32051       56.50728       42.80777
O         52.63743       56.34731       43.80375
H         51.83417       57.22040       41.43108
H         53.34283       56.63156       40.64008
H         52.17621       55.44877       41.35388
N         54.68056       56.68200       42.88739
C         55.48029       56.79694       44.11929
C         55.35550       58.17584       44.75305
O         56.34766       58.88505       44.86598
C         55.16004       55.71688       45.18712
C         55.22346       54.29184       44.71946
O         54.79778       53.31304       45.54139
O         55.63806       54.00894       43.60723
H         55.20529       56.70331       42.00010
H         56.54844       56.67526       43.82378
H         54.14632       55.88655       45.59688
H         55.86540       55.82518       46.04006
N         54.15206       58.60080       45.22347
C         53.91782       59.85152       45.91760
C         54.44447       59.84233       47.35915
O         54.28013       60.83350       48.04941
C         52.39076       60.17430       45.87207
C         51.43221       59.39343       46.81495
C         51.38554       57.86208       46.66546
C         50.35503       57.20333       47.60561
N         50.68030       55.79208       47.84428
H         53.35080       58.00926       45.06025
H         54.41674       60.66079       45.33787
H         52.04381       60.06422       44.81934
H         52.27258       61.24647       46.13678
H         50.40948       59.79978       46.65791
H         51.73855       59.61609       47.85459
H         52.38634       57.48018       46.93310
H         51.13408       57.56592       45.62251
H         49.33832       57.29955       47.16325
H         50.33332       57.71628       48.58695
H         50.94819       55.30154       46.96187
H         51.47900       55.72798       48.51047
H         49.87317       55.30816       48.29734
N         55.07132       58.73629       47.87483
C         55.49455       58.63147       49.27813
C         56.33370       57.36401       49.51760
O         56.51309       56.55414       48.62203
C         54.23452       58.61040       50.20028
C         53.29421       57.48498       49.84522
O         52.05793       57.40505       50.36423
O         53.61517       56.66647       48.99940
H         55.23014       57.93258       47.26577
H         56.14189       59.49849       49.52558
H         53.68062       59.56281       50.08814
H         54.51685       58.52085       51.27070
N         56.87264       57.14467       50.74889
C         57.62551       55.94213       51.09165
C         56.75232       54.73342       51.41987
O         57.23205       53.83810       52.10166
H         56.77422       57.87362       51.46826
H         58.15144       56.18097       52.04068
H         58.41595       55.71299       50.34440
N         55.44985       54.65976       51.02227
C         54.51868       53.62119       51.46216
C         54.92380       52.18663       51.09831
O         54.45159       51.27509       51.76209
C         53.10415       54.00380       50.97100
C         52.01645       53.01766       51.27760
N         51.77203       52.61635       52.54605
O         51.32130       52.60258       50.36513
H         55.07777       55.41051       50.43899
H         54.51009       53.66203       52.57492
H         53.12962       54.15674       49.86942
H         52.83692       54.97682       51.44193
H         52.33206       52.97926       53.33015
H         51.00165       51.96224       52.74258
N         55.83250       51.90739       50.11823
C         56.41593       50.57549       49.94201
C         55.42860       49.44814       49.67690
O         54.76682       49.46001       48.64904
H         56.19371       52.67507       49.53376
H         56.99224       50.34141       50.86089
H         57.13954       50.60584       49.09944
N         55.30507       48.41862       50.58186
C         54.43383       47.24378       50.42294
C         52.93372       47.54008       50.29976
O         52.18718       46.58334       50.19000
C         54.88031       46.36122       49.23100
C         56.10845       45.52237       49.50167
C         55.96596       44.27709       50.14502
C         57.37771       45.92391       49.05949
C         57.07144       43.44443       50.33236
C         58.48727       45.08931       49.25631
C         58.33360       43.84325       49.88651
O         59.38868       43.02047       50.05895
H         55.87861       48.45704       51.43836
H         54.52845       46.61881       51.34230
H         54.96820       46.94552       48.29336
H         54.08732       45.61406       49.00566
H         54.99157       43.94212       50.48018
H         57.50521       46.87393       48.55725
H         56.94392       42.48141       50.81269
H         59.46290       45.40352       48.90845
H         60.27402       43.25214       49.74473
N         52.42379       48.80915       50.30093
C         51.01133       49.17379       50.14608
C         50.18455       48.80889       51.38085
O         49.81346       49.70895       52.11882
C         50.38639       48.74409       48.77357
C         51.28583       49.10942       47.55380
C         48.98048       49.35382       48.57701
C         51.70864       50.58425       47.45720
H         53.06801       49.59554       50.40897
H         51.00129       50.27573       50.12556
H         50.26010       47.63983       48.76168
H         50.75525       48.83554       46.61329
H         52.21180       48.49960       47.59351
H         48.51886       48.95631       47.64591
H         48.30603       49.09527       49.41616
H         49.01910       50.45982       48.49921
H         52.35182       50.72450       46.56241
H         50.83775       51.26354       47.36175
H         52.31007       50.88332       48.33926
N         49.84285       47.52036       51.66255
C         49.01621       47.13623       52.80466
C         47.63338       47.74880       52.68314
O         47.14106       48.31815       53.64837
C         48.88727       45.60382       52.85108
O         50.15239       45.02538       53.05439
H         50.13253       46.77864       51.02202
H         49.49445       47.45275       53.76183
H         48.46593       45.22097       51.89677
H         48.18633       45.31996       53.67183
H         50.07522       44.39680       53.81959
N         46.96462       47.68630       51.49044
C         45.61974       48.21194       51.25003
C         45.45928       49.72198       51.45873
O         44.34162       50.20846       51.36378
C         44.59217       47.42771       52.07688
H         47.43589       47.22435       50.69870
H         45.36808       48.01479       50.18594
H         44.71602       47.59464       53.16615
H         43.56529       47.73661       51.78501
H         44.68943       46.34175       51.86102
N         46.51987       50.52437       51.75531
C         46.36942       51.93592       52.08626
C         45.95220       52.78717       50.89833
O         46.65118       52.79972       49.89418
C         47.68994       52.47991       52.64467
H         47.45584       50.11569       51.80981
H         45.62996       52.02645       52.91171
H         48.49834       52.43985       51.88312
H         47.55417       53.53029       52.97956
H         47.99863       51.87534       53.52455
N         44.84459       53.58699       50.98867
C         44.46668       54.61234       50.00899
C         44.43242       54.12441       48.56845
O         44.71674       54.90212       47.66611
C         45.26551       55.93497       50.21138
C         46.78442       55.76675       50.15577
C         47.51506       57.05382       50.40425
O         47.62224       57.88363       49.51539
O         48.16173       57.22595       51.57675
H         44.26472       53.51986       51.83848
H         43.41708       54.89973       50.24187
H         45.02557       56.33288       51.22185
H         44.93700       56.69273       49.46684
H         47.12411       55.32248       49.19326
H         47.07179       55.08384       50.97606
N         44.00908       52.86685       48.26793
C         43.93627       52.40289       46.89829
H         43.33428       53.10882       46.28623
H         44.95796       52.32235       46.46776
H         43.45178       51.40533       46.86254
H         43.73089       52.22455       49.02437
Ca        50.27195       58.01242       51.59029
O         49.90235       57.66022       54.67690
H         50.46368       57.16306       55.32343
H         49.02781       57.75674       55.12986
O         50.37614       59.97904       49.86513
H         49.56978       60.44551       49.53776
H         51.04450       60.68410       50.04618
O         52.05257       60.21870       52.57801
H         52.97360       60.21328       52.93921
H         51.85497       61.17375       52.40882
O         49.93766       55.43970       52.46299
H         49.27718       55.08958       51.81784
H         50.50891       54.66726       52.65339
O         48.97535       60.42124       52.88080
H         48.50169       61.14050       52.39285
H         49.49333       60.89321       53.58026
O         52.67300       57.39400       53.45601
H         53.64909       57.55404       53.48470
H         52.53698       56.57942       54.00131

Ca 1.70



