%chk=loop1.cluster16.chk
%nprocshared=48
%mem=10GB
%nosave
#b3lyp/svp scf=(tight,noincore) Test 
#IOP(5/87=12) Density=Current Pop=(MK,readradii) iop(6/33=2) iop(6/42=6)

loop1.cluster16 

   0  1 
C         40.65546       78.29223       26.99429
C         41.01197       77.71823       28.33636
O         42.04482       77.07512       28.45733
H         39.71683       78.88442       27.04747
H         41.46624       78.96781       26.64642
H         40.51682       77.47309       26.26087
N         40.20763       77.95356       29.41070
C         40.55839       77.51642       30.75919
C         40.39140       76.02635       31.00476
O         40.86469       75.55530       32.03311
C         39.80418       78.32723       31.83917
C         38.29989       78.19832       31.79919
O         37.66107       78.64436       30.85954
O         37.64671       77.64196       32.83560
H         39.38257       78.54720       29.26988
H         41.62999       77.74770       30.89916
H         40.07037       79.40131       31.74169
H         40.16288       77.98653       32.83529
N         39.70607       75.21655       30.14758
C         39.55667       73.78836       30.41694
C         40.90765       73.10010       30.29791
O         41.74401       73.62507       29.57197
C         38.56214       73.14719       29.42005
C         37.13347       73.66846       29.66461
C         36.09731       73.01597       28.73324
C         34.65227       73.28183       29.20402
N         34.19540       74.64625       28.93437
H         39.26522       75.62338       29.30868
H         39.15377       73.69056       31.44620
H         38.55369       72.04409       29.57262
H         38.88892       73.34515       28.37420
H         37.08814       74.77240       29.56640
H         36.87867       73.39444       30.71145
H         36.24826       71.91734       28.78528
H         36.23977       73.33326       27.67524
H         34.58000       73.06133       30.29303
H         33.96834       72.57946       28.68021
H         34.07945       74.77753       27.90304
H         33.26163       74.78044       29.38770
H         34.85638       75.35965       29.31295
N         41.25960       71.95742       30.96902
C         40.45185       71.28887       31.99717
C         40.96471       71.45819       33.43931
O         40.20888       71.06221       34.32193
C         40.29708       69.76631       31.73157
C         41.60290       69.02084       31.79523
O         41.84548       68.14783       32.79201
O         42.44168       69.19257       30.93388
H         42.17841       71.56830       30.75180
H         39.42984       71.70195       31.99323
H         39.81050       69.56671       30.75520
H         39.63529       69.34189       32.52112
N         42.17816       71.95455       33.84151
C         43.24147       72.48907       32.99593
C         44.53119       72.68458       33.78442
O         44.67701       72.09827       34.84359
H         42.34859       71.95066       34.85620
H         42.87531       73.45115       32.57881
H         43.54159       71.77303       32.21923
N         45.54711       73.47377       33.33222
C         45.53118       74.21336       32.08326
C         45.47430       75.70190       32.36008
O         46.29905       76.21864       33.10398
C         46.79128       73.88447       31.26515
C         46.83661       72.46761       30.76291
O         45.81068       71.62126       30.97487
O         47.80281       72.09007       30.12103
H         46.38440       73.56688       33.93280
H         44.66493       73.95616       31.44257
H         47.69728       74.09112       31.87707
H         46.81193       74.53352       30.37043
N         44.56212       76.46538       31.69705
C         44.57036       77.91503       31.72466
C         45.19977       78.45977       30.46105
O         45.15712       79.66770       30.26448
H         43.93038       76.01125       31.01922
H         45.13995       78.32229       32.58651
H         43.52922       78.27402       31.83096
N         45.87161       77.64137       29.58934
C         46.58292       78.14334       28.42583
C         46.11700       77.48130       27.15126
O         45.49118       76.42840       27.19194
C         48.11902       77.94388       28.58856
C         48.56389       76.48131       28.79553
O         48.60968       78.74566       29.63339
H         45.93243       76.63173       29.77719
H         46.39266       79.23085       28.30142
H         48.60402       78.29113       27.65173
H         48.31343       78.34374       30.49223
H         48.22957       76.10561       29.78153
H         48.17296       75.82020       27.99689
H         49.67208       76.41838       28.78226
N         46.43075       78.05710       25.96016
C         46.17745       77.43521       24.67462
C         47.51775       77.25013       23.99755
O         48.10492       78.21337       23.52109
C         45.10703       78.21932       23.84529
C         44.97512       77.74400       22.37474
C         45.31886       79.74381       23.84290
C         44.61587       76.27143       22.21598
H         46.92199       78.96546       25.97097
H         45.74799       76.42036       24.82606
H         44.13192       78.05516       24.35762
H         45.91660       77.94519       21.81654
H         44.16570       78.33256       21.88968
H         45.33047       80.14804       24.87572
H         46.25482       80.02709       23.32173
H         44.46330       80.23564       23.33042
H         43.68392       76.03694       22.76880
H         44.44517       76.06546       21.13881
H         45.43888       75.61923       22.57050
N         48.07026       76.00570       23.95743
C         49.31911       75.69182       23.27403
C         49.06936       74.78830       22.07792
O         49.89498       74.75276       21.17780
C         50.33525       75.00693       24.23848
C         49.86741       73.62360       24.73345
O         50.58895       75.80219       25.36948
H         47.56609       75.24507       24.43314
H         49.77842       76.62814       22.88323
H         51.28578       74.84539       23.68178
H         50.71351       76.73788       25.06814
H         48.97207       73.70649       25.38062
H         49.63141       72.93907       23.89510
H         50.67498       73.14445       25.32522
N         47.96768       73.98103       22.04213
C         47.67922       72.99947       21.01562
C         48.62729       71.81144       21.08398
O         49.75584       71.92775       21.54150
C         47.55661       73.59287       19.58629
C         46.61241       74.80429       19.56082
O         47.07189       72.59473       18.72052
H         47.28711       74.01787       22.80739
H         46.67982       72.59209       21.28871
H         48.56120       73.91620       19.23903
H         46.87980       73.00779       17.83975
H         45.58623       74.49134       19.84187
H         46.96352       75.59969       20.25104
H         46.58615       75.23927       18.53891
N         48.19632       70.62408       20.58750
C         48.99966       69.42864       20.45160
C         48.47458       68.08960       21.01970
O         49.23896       67.14668       20.85651
C         49.19239       69.23517       18.92552
C         50.20905       70.19428       18.30205
C         51.64426       69.89656       18.78856
C         52.67287       70.70201       17.98793
N         53.00877       70.04148       16.71974
H         47.29253       70.62774       20.13725
H         49.97527       69.55739       20.96076
H         48.20373       69.37564       18.42945
H         49.52748       68.21268       18.66173
H         49.94729       71.25405       18.52421
H         50.15175       70.05459       17.20350
H         51.89189       68.81235       18.71198
H         51.72187       70.18983       19.85336
H         53.60725       70.80550       18.58171
H         52.27514       71.72724       17.81812
H         53.80209       69.37759       16.88420
H         52.20800       69.49858       16.32443
H         53.31668       70.75476       16.02183
N         47.28535       67.79758       21.64952
C         46.14116       68.61933       22.02890
C         45.50822       69.29546       20.82977
O         45.14507       70.46267       20.89838
C         46.43721       69.43910       23.32210
C         45.13446       69.98040       23.94417
C         45.18136       70.45038       25.39809
O         45.41137       69.43247       26.32852
O         46.04660       71.50501       25.67874
H         47.16075       66.79691       21.87856
H         45.36884       67.88279       22.34934
H         47.18011       70.24867       23.15726
H         46.87923       68.72113       24.04912
H         44.37783       69.16826       23.95196
H         44.74803       70.81380       23.32862
N         45.40284       68.61111       19.65418
C         45.02530       69.25501       18.41356
H         44.06332       69.79463       18.51537
H         45.82263       69.96961       18.11038
H         44.93898       68.49348       17.60869
H         45.66761       67.61507       19.62164
Ca        46.21689       70.88397       27.87349
O         43.71096       72.11922       27.77615
H         43.51660       72.75932       27.04735
H         42.86070       72.02644       28.26719
O         48.77537       70.77798       27.23468
H         49.04154       70.28969       26.41741
H         49.29497       71.61831       27.23096
O         46.85443       73.60093       27.72982
H         46.02555       74.08679       27.96441
H         46.99994       73.79592       26.77145
O         47.70593       68.65093       28.98182
H         47.69586       67.87591       28.36582
H         48.65721       68.90464       29.06455
O         45.05752       68.69695       29.13585
H         44.70756       67.78563       28.98512
H         44.41239       69.13552       29.73564

Ca 1.70



