%chk=loop1.cluster125.chk
%nprocshared=48
%mem=10GB
%nosave
#b3lyp/svp scf=(tight,noincore) Test 
#IOP(5/87=12) Density=Current Pop=(MK,readradii) iop(6/33=2) iop(6/42=6)

loop1.cluster125 

   0  1 
C         32.74655       85.06954      123.18340
C         32.67036       84.63382      124.61644
O         33.05135       83.51424      124.92613
H         33.79834       84.98899      122.84054
H         32.09338       84.43764      122.54808
H         32.43037       86.12957      123.07320
N         32.16370       85.48279      125.55000
C         32.12254       85.18137      126.97543
C         30.70050       84.91455      127.42210
O         30.40049       85.09170      128.59731
C         32.76984       86.35230      127.76260
C         31.97606       87.64346      127.73644
O         31.74632       88.21863      126.68510
O         31.53844       88.18156      128.89079
H         31.77072       86.37548      125.22713
H         32.71193       84.26574      127.20546
H         33.78766       86.54081      127.35915
H         32.88111       86.04793      128.82599
N         29.76640       84.46079      126.53357
C         28.36691       84.31874      126.88096
C         27.84022       82.89361      126.66670
O         27.24537       82.67162      125.61833
C         27.53623       85.28582      126.00728
C         27.87644       86.75652      126.24230
C         26.91771       87.63194      125.43322
C         27.18708       89.11566      125.67880
N         26.13759       89.93242      125.07299
H         30.03603       84.27250      125.55664
H         28.17958       84.66580      127.89426
H         26.46143       85.13808      126.26178
H         27.67779       85.05142      124.92739
H         28.93018       86.96268      125.95471
H         27.74393       86.98742      127.32260
H         25.87865       87.39641      125.75254
H         27.01211       87.41123      124.34564
H         28.17983       89.38472      125.25330
H         27.20419       89.31544      126.77293
H         26.35924       90.94194      125.22547
H         26.06865       89.74111      124.04740
H         25.22136       89.71828      125.53216
N         27.88809       81.86967      127.58309
C         28.53462       81.76344      128.90340
C         28.05791       82.76707      129.95535
O         27.30830       83.66688      129.62217
C         30.07652       81.66181      128.78456
C         30.42152       80.69962      127.69539
O         31.14843       81.04046      126.77430
O         29.82523       79.48612      127.71991
H         27.40441       81.00584      127.28532
H         28.21645       80.76452      129.27252
H         30.48684       81.24490      129.72188
H         30.56846       82.62866      128.61012
N         28.39482       82.67950      131.27726
C         28.90085       81.47748      131.91618
C         30.35711       81.53379      132.32310
O         30.84967       82.61531      132.60293
H         28.03320       83.41442      131.90435
H         28.57661       80.55927      131.39801
H         28.35814       81.41538      132.88117
N         31.13065       80.40670      132.41121
C         30.66570       79.06352      132.06015
C         31.86718       78.16110      131.83600
O         31.90493       77.03402      132.30617
C         29.65972       78.53537      133.12292
C         28.94909       77.26549      132.74955
O         28.72140       76.32875      133.69042
O         28.43676       77.14876      131.64809
H         32.11949       80.53036      132.68501
H         30.18475       79.12448      131.05936
H         28.85660       79.27207      133.27405
H         30.16114       78.41962      134.10847
N         32.88742       78.62912      131.06262
C         34.05657       77.83765      130.73088
C         34.69879       78.32734      129.44781
O         34.24991       79.29829      128.85464
H         32.82427       79.59040      130.70093
H         33.75676       76.78395      130.55455
H         34.78460       77.86645      131.57337
N         35.77991       77.66824      128.95837
C         36.44687       78.06813      127.72283
C         35.60766       77.85239      126.48832
O         34.82969       76.90476      126.43993
C         37.76542       77.29435      127.51282
C         37.56428       75.76673      127.41017
O         38.63683       77.59410      128.56698
H         36.15410       76.88691      129.51143
H         36.69646       79.15255      127.79815
H         38.21162       77.65874      126.55631
H         39.52573       77.24307      128.30259
H         37.15439       75.34285      128.34849
H         36.88444       75.49367      126.57694
H         38.53818       75.27907      127.21297
N         35.90719       78.55626      125.36375
C         35.31802       78.28798      124.06578
C         36.33381       77.60646      123.16976
O         37.33847       78.21853      122.81754
C         34.75780       79.58576      123.38089
C         34.33995       79.23980      121.92121
C         35.72911       80.78983      123.44961
C         33.59577       80.34323      121.18340
H         36.66503       79.25467      125.42142
H         34.45559       77.58807      124.17023
H         33.84480       79.89783      123.93418
H         33.65649       78.36846      121.97819
H         35.21763       78.95209      121.29702
H         35.85601       81.11342      124.50551
H         36.72791       80.56081      123.03062
H         35.32138       81.67102      122.91574
H         33.15702       79.90933      120.25845
H         32.77580       80.74013      121.81487
H         34.28386       81.16204      120.88735
N         36.09300       76.35484      122.68515
C         36.82064       75.79252      121.55340
C         35.86665       75.34086      120.43529
O         36.32866       74.77249      119.46201
C         37.77980       74.66108      122.00104
C         37.09335       73.38874      122.49952
O         38.63392       75.13726      123.00900
H         35.30444       75.81241      123.08304
H         37.48172       76.56751      121.10501
H         38.39244       74.35568      121.12100
H         39.22017       75.82175      122.59141
H         37.87618       72.64446      122.76582
H         36.47313       73.58777      123.39632
H         36.46541       72.94057      121.70188
N         34.51466       75.57235      120.52296
C         33.51583       75.09638      119.56934
C         33.34659       73.58717      119.63608
O         34.17950       72.88258      120.19215
C         33.71505       75.63411      118.11784
C         33.73582       77.16705      118.10530
O         32.66097       75.19460      117.29648
H         34.14318       76.10693      121.31412
H         32.54170       75.49771      119.93285
H         34.66959       75.24298      117.70388
H         32.82516       75.52757      116.37604
H         34.57350       77.55736      118.71711
H         33.86527       77.53249      117.06370
H         32.77400       77.56221      118.49780
N         32.21034       73.04588      119.12373
C         31.89591       71.63654      119.07348
C         30.69945       71.11153      119.90724
O         30.64989       69.89215      119.99902
C         31.71371       71.25360      117.57198
C         32.98458       70.61035      117.01667
C         32.85306       70.20069      115.54184
C         34.07071       69.37290      115.09146
N         35.25512       70.20122      114.85855
H         31.56536       73.67968      118.67588
H         32.74796       71.06313      119.50543
H         31.43988       72.15083      116.96804
H         30.87814       70.53284      117.43715
H         33.14456       69.68347      117.61115
H         33.84689       71.29147      117.16001
H         32.71087       71.08177      114.87555
H         31.95446       69.55336      115.44960
H         33.82272       68.84955      114.14357
H         34.28868       68.59110      115.85478
H         35.08076       70.83103      114.04153
H         35.50172       70.77191      115.69693
H         36.06233       69.57756      114.62822
N         29.68465       71.81598      120.52942
C         29.39065       73.24833      120.55248
C         29.28065       73.85989      119.17321
O         29.71593       74.98677      118.97094
C         30.27403       73.99424      121.58201
C         29.69792       73.86061      123.00568
C         30.64949       74.41308      124.02316
O         31.72179       73.86390      124.21727
O         30.32102       75.50401      124.73656
H         28.98048       71.23287      121.01109
H         28.34376       73.35419      120.91735
H         30.29965       75.08580      121.37693
H         31.30951       73.60173      121.52974
H         29.47507       72.80539      123.26945
H         28.74070       74.43273      123.04353
N         28.69767       73.16308      118.16069
C         28.64483       73.69224      116.81610
H         28.08075       74.64748      116.80285
H         29.67704       73.86782      116.44120
H         28.14664       72.96324      116.14370
H         28.31373       72.22330      118.33923
Ca        29.52610       77.72481      126.33248
O         30.24432       78.60624      123.81766
H         30.82267       79.40114      123.92719
H         29.32421       78.97160      123.80564
O         27.13096       78.06960      127.66046
H         26.27899       78.02383      127.15968
H         26.87276       78.08797      128.61496
O         30.19684       76.77602      128.98084
H         29.66406       76.11903      129.49387
H         31.12713       76.44350      129.03627
O         28.17993       75.09519      127.35802
H         27.63456       75.08573      128.18459
H         28.08036       74.18526      126.98171
O         32.11393       78.02764      126.27969
H         31.98378       78.97633      126.05304
H         32.90854       78.04582      126.85111
O         27.58692       77.03263      124.36876
H         26.83468       77.67166      124.44282
H         27.69715       76.88122      123.39698

Ca 1.70



