%chk=loop1.cluster126.chk
%nprocshared=48
%mem=10GB
%nosave
#b3lyp/svp scf=(tight,noincore) Test 
#IOP(5/87=12) Density=Current Pop=(MK,readradii) iop(6/33=2) iop(6/42=6)

loop1.cluster126 

   0  1 
C         44.92294       -7.38932       28.18056
C         45.27533       -8.21478       29.38234
O         45.36108       -9.42577       29.28315
H         43.99891       -6.81225       28.39414
H         45.74815       -6.67669       27.96233
H         44.75693       -8.02813       27.28866
N         45.48208       -7.59905       30.57320
C         45.86479       -8.29788       31.80036
C         44.67100       -8.85474       32.57963
O         44.86983       -9.30985       33.69857
C         46.73869       -7.37670       32.69728
C         46.09397       -6.09021       33.14027
O         45.88067       -5.18800       32.34481
O         45.83485       -5.89810       34.44500
H         45.35587       -6.58169       30.59450
H         46.52924       -9.15768       31.56109
H         47.69128       -7.12671       32.18264
H         47.00811       -7.94864       33.61175
N         43.40679       -8.86711       32.05783
C         42.23185       -9.25215       32.83989
C         41.36278      -10.34128       32.17373
O         40.28557       -9.99280       31.70563
C         41.37124       -7.97418       33.02042
C         42.04409       -6.89340       33.87099
C         41.15366       -5.63514       33.91435
C         41.79908       -4.42572       34.61252
N         43.07627       -4.06151       34.00123
H         43.24832       -8.51083       31.10531
H         42.48856       -9.58656       33.86051
H         40.40632       -8.23234       33.50720
H         41.15812       -7.55424       32.00915
H         43.01352       -6.66099       33.39305
H         42.22844       -7.26896       34.90272
H         40.19925       -5.87615       34.43453
H         40.91192       -5.33352       32.87297
H         41.95345       -4.63814       35.69247
H         41.10075       -3.56313       34.52572
H         42.97535       -3.92484       32.96891
H         43.44713       -3.18967       34.43999
H         43.76371       -4.81328       34.19208
N         41.65817      -11.68357       32.12176
C         42.89671      -12.37845       32.48534
C         43.22683      -12.38821       33.97942
O         42.47048      -11.80218       34.73924
C         43.99869      -11.91574       31.51398
C         44.62606      -13.04618       30.77623
O         45.96419      -13.13742       30.70929
O         43.92527      -13.84450       30.17185
H         40.92832      -12.28425       31.70388
H         42.67922      -13.45099       32.27512
H         44.76179      -11.30016       32.01349
H         43.53562      -11.31949       30.69881
N         44.27548      -13.08705       34.52780
C         45.30908      -13.81907       33.78877
C         46.28517      -14.52883       34.73431
O         45.95815      -14.69979       35.89997
H         44.34569      -13.06416       35.55582
H         45.88068      -13.08182       33.20216
H         44.86069      -14.58595       33.11568
N         47.50553      -15.00056       34.33554
C         48.09550      -14.80331       33.01827
C         48.73848      -13.42184       32.95789
O         48.37793      -12.63161       32.09797
C         49.11650      -15.93616       32.76170
C         49.69228      -15.95597       31.37829
O         50.45710      -16.85178       31.05802
O         49.33130      -15.04231       30.46461
H         48.08509      -15.47456       35.04771
H         47.30823      -14.91255       32.24264
H         48.58751      -16.90728       32.89294
H         49.94574      -15.88964       33.49742
N         49.66339      -13.04347       33.89154
C         50.17621      -11.67934       33.97234
C         51.05867      -11.25427       32.81572
O         51.29896      -10.06413       32.66793
H         49.93739      -13.71289       34.62627
H         50.77200      -11.55687       34.90353
H         49.30808      -10.99074       34.04079
N         51.63867      -12.17537       32.00088
C         52.57225      -11.81221       30.93344
C         51.84390      -11.48058       29.64600
O         50.78387      -12.02053       29.40492
C         53.63880      -12.92153       30.72487
C         53.07453      -14.29899       30.31450
O         54.42332      -13.04415       31.88557
H         51.50069      -13.16542       32.23033
H         53.14657      -10.90773       31.23851
H         54.32307      -12.60018       29.90823
H         53.87435      -13.48531       32.58441
H         52.58352      -14.25199       29.32127
H         53.90295      -15.03593       30.27144
H         52.34519      -14.69605       31.04599
N         52.35997      -10.56944       28.77637
C         51.75183      -10.24677       27.48759
C         52.86785      -10.29377       26.44683
O         53.23307       -9.27821       25.87220
C         50.96219       -8.89908       27.56952
C         50.20612       -8.58650       26.24349
C         51.82604       -7.71800       28.03325
C         48.86312       -9.32424       26.15414
H         53.23668      -10.09042       29.02998
H         50.99711      -11.01401       27.20199
H         50.19445       -8.99110       28.36427
H         50.83437       -8.83145       25.36154
H         49.95732       -7.50575       26.17732
H         51.18320       -6.81924       28.14816
H         52.25274       -7.93746       29.03465
H         52.64417       -7.47207       27.33366
H         48.38798       -9.12984       25.16880
H         48.97329      -10.41848       26.28552
H         48.17690       -8.93860       26.94168
N         53.45119      -11.48757       26.16195
C         54.53096      -11.64932       25.18929
C         54.01302      -12.27501       23.90627
O         54.79263      -12.48680       22.98690
C         55.66296      -12.52445       25.81368
C         55.23359      -13.97730       26.10497
O         56.10929      -11.96201       27.01986
H         53.05320      -12.32803       26.60293
H         54.95976      -10.65722       24.91652
H         56.51782      -12.58647       25.10139
H         56.33130      -11.01259       26.84287
H         56.06810      -14.52336       26.59059
H         54.36478      -14.03531       26.79017
H         54.98663      -14.52125       25.17454
N         52.69615      -12.62118       23.79734
C         52.11354      -13.37411       22.70512
C         52.61104      -14.79819       22.68860
O         53.67731      -15.09887       23.20623
C         52.15272      -12.64660       21.34013
C         51.36113      -11.33995       21.45444
O         51.55004      -13.45304       20.36050
H         52.04884      -12.39051       24.55978
H         51.04187      -13.48651       22.97407
H         53.20666      -12.44343       21.04259
H         51.68982      -13.01052       19.48344
H         51.34094      -10.81477       20.47825
H         50.31333      -11.56810       21.75274
H         51.81309      -10.67042       22.21483
N         51.81498      -15.74885       22.13363
C         52.16364      -17.14319       22.06168
C         51.19412      -18.16228       22.69466
O         51.60946      -19.31333       22.68708
C         52.40500      -17.49068       20.57718
C         53.48240      -16.57020       19.97762
C         53.98179      -17.07285       18.62765
C         55.09644      -16.15827       18.10445
N         55.65482      -16.67524       16.85557
H         50.98366      -15.44144       21.64981
H         53.12739      -17.30966       22.59300
H         51.46454      -17.39846       19.98574
H         52.75477      -18.54222       20.51698
H         54.35296      -16.54230       20.66667
H         53.08321      -15.53687       19.86982
H         53.14312      -17.09574       17.89702
H         54.38319      -18.10129       18.75359
H         55.91468      -16.07181       18.85752
H         54.67276      -15.14326       17.93946
H         56.32686      -17.44915       17.06625
H         54.89851      -17.03280       16.22842
H         56.16558      -15.90692       16.36459
N         49.94143      -17.97457       23.24833
C         49.05947      -16.81658       23.42381
C         48.77397      -16.06147       22.15109
O         48.83032      -14.83700       22.12577
C         49.38302      -16.03200       24.71108
C         48.14302      -15.27342       25.21846
C         48.34241      -14.80543       26.61526
O         48.63615      -13.53061       26.91110
O         48.04665      -15.55828       27.52623
H         49.50620      -18.84749       23.59024
H         48.07289      -17.28026       23.65220
H         50.26834      -15.37061       24.60499
H         49.61686      -16.79285       25.49210
H         47.29773      -15.99945       25.28115
H         47.80583      -14.45370       24.55592
N         48.46290      -16.76483       21.03059
C         48.35058      -16.15546       19.72597
H         47.80319      -15.19147       19.76407
H         49.37015      -16.00538       19.30837
H         47.81387      -16.85316       19.04984
H         48.38216      -17.78985       21.09431
Ca        48.63530      -13.38650       29.13303
O         46.25287      -12.08137       27.87032
H         45.50350      -11.43784       27.86077
H         45.88718      -12.88602       27.42639
O         46.50672      -15.94846       30.00238
H         45.67482      -15.46426       30.19955
H         46.37540      -16.22203       29.06527
O         48.40880      -10.38192       29.82961
H         48.51695       -9.39992       29.87635
H         47.44063      -10.51746       29.69621

Ca 1.70



