%chk=loop1.cluster60.chk
%nprocshared=48
%mem=10GB
%nosave
#b3lyp/svp scf=(tight,noincore) Test 
#IOP(5/87=12) Density=Current Pop=(MK,readradii) iop(6/33=2) iop(6/42=6)

loop1.cluster60 

   0  1 
C         77.78992       67.68916       17.95431
C         78.80431       68.70532       17.52680
O         79.09614       68.80134       16.34430
H         76.82563       67.86281       17.43358
H         78.17253       66.67741       17.71011
H         77.61221       67.74163       19.04987
N         79.39682       69.50023       18.45719
C         80.40211       70.49767       18.12779
C         81.65579       69.84682       17.52893
O         82.34536       69.09207       18.19852
C         80.75256       71.27382       19.41130
C         81.77413       72.34175       19.24698
O         82.42020       72.80794       20.32586
O         81.99693       72.82139       18.15625
H         79.10658       69.39946       19.44165
H         79.95417       71.21437       17.39835
H         81.14059       70.54648       20.15303
H         79.84284       71.75686       19.82824
N         81.97848       70.11734       16.24013
C         83.12515       69.57281       15.51256
C         84.42830       70.39060       15.69092
O         85.40972       70.03565       15.05064
C         82.74051       69.54240       14.00665
C         81.61650       68.54107       13.63529
C         82.13737       67.08656       13.60766
C         81.38834       66.18608       12.60205
N         80.03619       65.81780       13.01452
H         81.28716       70.65127       15.71331
H         83.33108       68.52787       15.82375
H         83.61587       69.31831       13.36117
H         82.41927       70.55367       13.69954
H         81.32428       68.81287       12.59927
H         80.70321       68.64577       14.26219
H         82.19309       66.64622       14.62767
H         83.17024       67.11755       13.20346
H         81.97625       65.25309       12.45556
H         81.35451       66.70610       11.61772
H         80.08317       65.15737       13.82371
H         79.46891       66.65905       13.25944
H         79.57695       65.32167       12.21437
N         84.51987       71.49454       16.50360
C         85.72447       72.34309       16.56938
C         86.31928       72.51112       17.97485
O         87.50008       72.81996       18.06333
C         85.39835       73.75074       16.02362
C         84.75804       73.69076       14.65873
O         85.39227       73.28165       13.70088
O         83.45828       74.01387       14.50696
H         83.69565       71.78498       17.02657
H         86.52755       71.92543       15.92346
H         86.31264       74.38434       15.97221
H         84.70771       74.23937       16.73648
N         85.54730       72.46491       19.10535
C         86.07260       72.84304       20.41770
C         85.89058       74.32448       20.70493
O         86.51036       74.82556       21.63400
H         84.54194       72.28764       19.02214
H         87.15527       72.59810       20.47765
H         85.57810       72.25470       21.22114
N         85.02011       75.07963       19.97285
C         84.83729       76.51651       20.16482
C         83.63110       76.86560       21.01876
O         83.44896       78.03987       21.30875
C         84.79327       77.22215       18.79179
C         83.74790       76.75732       17.81264
O         82.78420       75.87890       18.12515
O         83.80684       77.15982       16.66299
H         84.44083       74.60858       19.26997
H         85.71401       76.93249       20.71175
H         85.76918       77.02465       18.30129
H         84.67863       78.31970       18.91398
N         82.78575       75.90669       21.49558
C         81.65468       76.23515       22.34936
C         80.39577       76.51899       21.56446
O         79.46054       77.06221       22.13883
H         82.94361       74.92357       21.26040
H         81.91499       77.10380       22.99283
H         81.44686       75.39173       23.04008
N         80.28892       76.17972       20.24836
C         79.10871       76.45555       19.44297
C         78.63084       75.20300       18.74062
O         79.44069       74.55615       18.08175
C         79.43332       77.51554       18.35719
C         79.87918       78.84157       18.99160
O         80.41455       77.02558       17.47311
H         81.08186       75.71728       19.78656
H         78.28214       76.87732       20.05710
H         78.49720       77.70222       17.78260
H         80.80719       77.78625       16.97159
H         79.11997       79.19927       19.71784
H         80.85519       78.71668       19.50631
H         79.99249       79.61293       18.20010
N         77.29924       74.89892       18.68361
C         76.78848       73.98291       17.67215
C         76.15789       74.85693       16.60502
O         75.09997       75.43219       16.83601
C         75.75266       72.94102       18.18563
C         76.20427       72.21069       19.46752
C         75.45741       71.92951       17.04976
C         75.05094       71.41343       20.09727
H         76.62680       75.48464       19.20480
H         77.63729       73.41451       17.22684
H         74.82325       73.49111       18.45129
H         76.50332       72.96582       20.22447
H         77.07523       71.55029       19.26533
H         75.04575       72.44442       16.16187
H         76.39160       71.40643       16.74611
H         74.71528       71.16215       17.33480
H         75.37998       70.95983       21.05337
H         74.19485       72.09177       20.31253
H         74.69387       70.59534       19.44135
N         76.79437       75.05240       15.42366
C         76.22668       75.81662       14.32923
C         75.11128       74.99883       13.71416
O         74.91613       73.85352       14.09965
C         77.30173       76.15580       13.25546
C         78.47844       76.97511       13.83128
O         77.75230       74.98580       12.62937
H         77.70507       74.63258       15.30309
H         75.83653       76.78017       14.72706
H         76.85434       76.78070       12.45447
H         78.59028       74.70194       13.06139
H         78.14257       77.98682       14.13172
H         78.93171       76.47616       14.71418
H         79.27194       77.07718       13.05919
N         74.31941       75.52394       12.75475
C         73.22461       74.77079       12.15059
C         73.76706       73.65834       11.24556
O         73.15464       72.60966       11.12455
C         72.30011       75.76524       11.42960
C         71.00106       75.12116       10.96148
O         71.97598       76.78448       12.34345
H         74.47843       76.50684       12.47843
H         72.63268       74.31038       12.97574
H         72.85758       76.19948       10.56507
H         71.70237       77.57608       11.81302
H         70.33853       75.91252       10.55134
H         71.19074       74.36527       10.17470
H         70.48643       74.64718       11.82550
N         74.97913       73.82820       10.65180
C         75.70991       72.79913        9.91190
C         76.00883       71.60502       10.80836
O         75.70969       70.47332       10.44706
C         77.02565       73.47522        9.43960
C         78.08910       72.59481        8.80145
C         77.59977       71.84551        7.56906
C         78.79659       71.14515        6.92163
N         78.38718       70.33505        5.78085
H         75.43867       74.74068       10.77348
H         75.13452       72.46586        9.01979
H         77.52921       73.94689       10.30990
H         76.75678       74.28978        8.73148
H         78.47806       71.86932        9.54970
H         78.92558       73.27191        8.51508
H         77.14246       72.55244        6.84232
H         76.83602       71.09852        7.87635
H         79.29329       70.49176        7.67291
H         79.52788       71.91582        6.58574
H         77.70672       69.60427        6.09151
H         77.95567       70.93970        5.04517
H         79.23459       69.86566        5.38802
N         76.62798       71.80961       11.99684
C         77.04483       70.76070       12.92311
C         75.85950       69.95850       13.44022
O         75.98333       68.74955       13.57693
C         77.87555       71.40986       14.06540
C         79.19499       71.97334       13.47068
C         80.07489       72.76063       14.40686
O         79.65935       73.72799       15.00429
O         81.37997       72.49776       14.46168
H         76.82175       72.78459       12.25278
H         77.72471       70.04562       12.40497
H         78.12397       70.66490       14.84701
H         77.26741       72.21642       14.53326
H         78.97422       72.62896       12.61248
H         79.79004       71.13020       13.06365
N         74.66341       70.55969       13.69818
C         73.48557       69.82961       14.12724
H         72.66823       69.99407       13.39251
H         73.66021       68.73607       14.20654
H         73.15681       70.20956       15.11631
H         74.56809       71.56987       13.55673
Ca        82.30124       74.64772       16.33119
O         81.60937       76.40943       14.28797
H         81.82866       77.32820       13.99706
H         81.99903       75.82690       13.58991

Ca 1.70



