%chk=loop4.cluster73.chk
%nprocshared=48
%mem=10GB
%nosave
#b3lyp/svp scf=(tight,noincore) Test 
#IOP(5/87=12) Density=Current Pop=(MK,readradii) iop(6/33=2) iop(6/42=6)

loop4.cluster73 

   -3  1 
C        107.89065       27.83913       68.14200
C        109.19691       28.43628       68.59642
O        109.46233       29.59582       68.32278
H        107.20195       28.61023       67.73719
H        108.09148       27.09198       67.34303
H        107.39060       27.31800       68.98591
N        110.06900       27.66556       69.30297
C        111.41858       28.05928       69.71916
C        111.46619       29.29515       70.61909
O        112.33623       30.13802       70.43672
C        112.33771       28.24337       68.49401
C        112.16578       27.14495       67.49121
O        111.71748       27.40706       66.38761
O        112.43920       25.86838       67.79846
H        109.77127       26.70597       69.53952
H        111.81097       27.20443       70.31452
H        113.40115       28.31420       68.81286
H        112.06057       29.19458       67.99290
N        110.54827       29.47402       71.60742
C        110.56830       30.62078       72.51882
C        110.47934       30.08559       73.94390
O        109.54031       29.35354       74.22417
C        109.36107       31.56312       72.22368
C        109.48443       32.16325       70.79779
C        109.28126       32.70657       73.26306
C        108.24883       32.94524       70.34930
H        109.78325       28.78796       71.69908
H        111.48177       31.23158       72.37417
H        108.43163       30.95579       72.29251
H        109.62495       31.35122       70.06251
H        110.37854       32.82436       70.74413
H        108.36328       33.31007       73.12388
H        109.23125       32.31600       74.29947
H        110.16647       33.37386       73.18181
H        108.04994       33.81810       71.00143
H        108.41054       33.32918       69.32004
H        107.36185       32.27714       70.34359
N        111.35168       30.43226       74.93605
C        112.50098       31.31543       74.76435
C        113.60281       30.61770       73.99040
O        114.34298       31.28498       73.27897
C        113.03091       31.79693       76.12778
C        112.00165       32.64312       76.84032
O        110.82687       32.11106       77.23064
O        112.22789       33.82202       77.06019
H        111.16407       30.05912       75.87894
H        112.19390       32.24212       74.22782
H        113.93789       32.41865       75.95803
H        113.31714       30.93323       76.76667
N        113.73789       29.25865       74.04488
C        114.68276       28.54033       73.21307
C        116.12634       28.84266       73.52894
O        116.44220       29.32772       74.60684
H        113.10054       28.70649       74.63511
H        114.47698       28.82117       72.15591
H        114.52662       27.44489       73.29935
N        117.04944       28.64425       72.55132
C        118.44649       29.04876       72.65124
C        118.70368       30.31490       71.83262
O        119.82619       30.80144       71.83779
C        119.38407       27.88144       72.22671
C        119.19102       27.29406       70.84021
O        119.99152       26.29210       70.43361
O        118.31019       27.68410       70.09435
H        116.70440       28.29436       71.64843
H        118.70001       29.31022       73.70359
H        119.25248       27.04722       72.94665
H        120.43757       28.23029       72.30243
N        117.69965       30.92449       71.12748
C        117.90470       32.10666       70.30241
C        118.44498       31.77464       68.91981
O        118.48976       32.65781       68.07601
H        116.74454       30.54321       71.15644
H        118.54324       32.85392       70.81975
H        116.90704       32.57605       70.15776
N        118.83645       30.50506       68.61222
C        119.34889       30.04665       67.33055
C        118.58737       30.55767       66.12837
O        119.19500       30.87004       65.11195
C        120.85904       30.27253       67.21328
C        121.65200       29.54641       68.30981
C        123.14121       29.66928       68.08790
N        124.00087       29.01035       68.89473
O        123.57866       30.34766       67.16848
H        118.79136       29.79567       69.34005
H        119.18193       28.94484       67.31010
H        121.07512       31.36230       67.23787
H        121.19020       29.85356       66.23711
H        121.38713       28.46645       68.28455
H        121.39051       29.94862       69.31366
H        123.65074       28.42123       69.66371
H        125.01658       29.07816       68.73339
N        117.23291       30.61632       66.15665
C        116.47014       30.93551       64.95854
C        116.62939       29.83193       63.92890
O        117.02853       28.72554       64.25942
C        114.95368       31.15305       65.24958
C        114.33211       30.04284       66.11950
C        114.71040       32.52172       65.89215
H        116.75392       30.41633       67.04105
H        116.88306       31.86629       64.50685
H        114.40965       31.16024       64.27851
H        113.22889       30.14740       66.11927
H        114.59184       29.03413       65.73721
H        114.65591       30.11989       67.17909
H        113.63101       32.65338       66.11899
H        115.29648       32.63065       66.82831
H        115.01045       33.32494       65.18409
N        116.26384       30.09187       62.64612
C        116.22293       29.08349       61.59948
C        114.74161       28.87432       61.27744
O        113.89012       29.51475       61.87067
C        117.02525       29.62382       60.38364
C        117.32811       28.68284       59.23078
N        117.74038       29.19258       58.04673
O        117.25013       27.47232       59.36592
H        115.93281       31.03767       62.41100
H        116.66651       28.12588       61.95366
H        118.01384       29.99845       60.72298
H        116.45995       30.49587       59.99254
H        117.83233       30.21081       57.92023
H        117.94908       28.56910       57.25213
N        114.37600       27.94108       60.37037
C        112.98399       27.66239       60.03798
C        112.91868       26.32425       59.35009
O        113.84621       25.97543       58.63774
C        112.31635       28.75440       59.18150
C        112.89623       28.95903       57.79328
C        112.14916       28.58254       56.66238
C        114.14859       29.57114       57.61053
C        112.63540       28.82951       55.37538
C        114.62873       29.82796       56.31891
C        113.86702       29.46496       55.19780
O        114.30231       29.73388       53.94919
H        115.10186       27.35703       59.97159
H        112.41828       27.56544       60.99250
H        112.31634       29.72812       59.71508
H        111.25148       28.44873       59.08175
H        111.18463       28.10483       56.77766
H        114.73551       29.87851       58.46201
H        112.04459       28.54287       54.51423
H        115.58356       30.32259       56.18859
H        115.12743       30.21320       53.78712
N        111.87249       25.48240       59.58621
C        111.94962       24.09278       59.15459
C        111.08379       23.86258       57.92517
O        111.66564       23.65584       56.86756
C        111.82359       23.10586       60.34661
C        112.52125       23.66863       61.60297
C        112.58970       22.66009       62.70120
O        111.89224       22.85537       63.83310
O        113.29015       21.66821       62.58137
H        111.07111       25.80786       60.14126
H        112.98820       23.89616       58.81043
H        112.27345       22.13640       60.03760
H        110.78466       22.89497       60.64554
H        111.92595       24.53632       61.96515
H        113.54887       24.02565       61.38104
N        109.71637       23.89168       57.91010
C        108.85257       24.07256       59.06839
C        107.81639       25.15768       58.83247
O        107.07144       25.08710       57.86506
C        108.14003       22.74470       59.45023
C        107.22894       22.09009       58.38902
C        107.99556       21.39227       57.30291
O        107.90148       21.76271       56.14386
O        108.74562       20.31364       57.60050
H        109.25664       23.73013       57.00301
H        109.42838       24.36124       59.95903
H        107.50765       22.98296       60.33323
H        108.88491       21.99081       59.78158
H        106.52111       22.82606       57.96726
H        106.60976       21.31418       58.88437
N        107.67193       26.17453       59.72528
C        106.54599       27.08114       59.65547
H        105.62765       26.53099       59.96119
H        106.69139       27.92454       60.36101
H        106.40785       27.47582       58.62739
H        108.32475       26.26178       60.51824
Ca       111.83553       24.39899       66.20282
O        113.68153       22.28607       66.28132
H        114.48679       21.76064       66.50741
H        113.21310       21.73888       65.60394
O        110.63773       25.86610       63.92483
H        110.92843       26.80106       63.77977
H        109.99320       25.68913       63.19544
O        113.70957       25.82191       64.67767
H        113.33555       26.53247       64.09978
H        114.60312       25.63213       64.30001
O        111.43347       23.06422       68.49611
H        111.91040       22.21292       68.33099
H        111.37050       23.14327       69.47864

Ca 1.70



