%chk=loop3.cluster67.chk
%nprocshared=48
%mem=10GB
%nosave
#b3lyp/svp scf=(tight,noincore) Test 
#IOP(5/87=12) Density=Current Pop=(MK,readradii) iop(6/33=2) iop(6/42=6)

loop3.cluster67 

   0  1 
C        113.81018       54.35533       13.85836
C        115.02729       54.22832       12.98930
O        115.11844       53.30453       12.19725
H        112.99560       53.68720       13.51165
H        114.07089       54.12544       14.91269
H        113.44114       55.40344       13.80988
N        115.97625       55.19671       13.04523
C        117.14811       55.24328       12.17795
C        118.19730       54.19473       12.53951
O        118.09010       53.07140       12.07769
C        117.71719       56.68881       12.04706
C        117.89812       57.47756       13.32979
O        119.13132       57.76713       13.78476
O        116.93011       57.97688       13.88233
H        115.78737       55.98471       13.67113
H        116.83844       55.00857       11.13295
H        117.01913       57.28657       11.42309
H        118.67657       56.63928       11.48673
N        119.26201       54.50125       13.33077
C        120.35186       53.57754       13.59917
C        121.27872       53.48602       12.38842
O        122.21848       54.26218       12.27848
C        121.05832       54.01968       14.89798
C        122.15254       53.04057       15.30846
C        122.48301       53.15144       16.80077
C        123.62333       52.20314       17.20315
N        123.34197       50.80477       16.86133
H        119.29435       55.41434       13.78341
H        119.92647       52.57280       13.82751
H        120.26754       54.02449       15.68113
H        121.47274       55.05185       14.82759
H        123.05509       53.20840       14.68073
H        121.76716       52.01756       15.13379
H        121.57036       52.89474       17.38610
H        122.77533       54.19271       17.06025
H        123.77442       52.28815       18.30180
H        124.55951       52.52387       16.69719
H        123.30910       50.67287       15.82507
H        124.11752       50.20416       17.21907
H        122.43961       50.49678       17.29112
N        121.06667       52.52611       11.44501
C        121.84690       52.38474       10.21937
C        120.94584       52.23580        8.98420
O        121.44330       51.90437        7.91896
C        122.88248       51.24639       10.37251
C        122.35899       49.91157       10.81961
O        122.86088       49.33644       11.93036
O        121.53930       49.31078       10.15016
H        120.30440       51.85827       11.59925
H        122.46341       53.29033       10.02662
H        123.62880       51.57585       11.12810
H        123.41957       51.11621        9.41005
N        119.61651       52.54074        9.04818
C        118.74109       52.49670        7.88133
C        117.30902       52.89702        8.24273
O        116.99828       53.00603        9.41577
H        119.23400       52.87432        9.93397
H        118.72076       51.47180        7.44918
H        119.16135       53.18425        7.12768
N        116.34762       53.11817        7.30405
C        116.59339       53.19236        5.87414
C        115.26506       53.00191        5.13470
O        114.35833       53.78943        5.37169
C        117.17480       54.59322        5.54492
C        117.36350       54.80810        4.06544
N        116.70892       55.81022        3.43177
O        118.11130       54.07587        3.43518
H        115.40229       53.35764        7.64692
H        117.32691       52.41887        5.58470
H        118.15113       54.75152        6.04252
H        116.48808       55.37030        5.94781
H        116.08071       56.44045        3.95260
H        116.83135       55.95602        2.41938
N        115.05133       52.02235        4.20063
C        116.04571       51.04927        3.77327
C        116.11030       49.86340        4.70172
O        116.31007       50.04958        5.88811
H        114.14472       52.01975        3.70833
H        117.03738       51.52512        3.65414
H        115.76831       50.68477        2.76205
N        115.98381       48.59506        4.20931
C        116.03071       47.39749        5.04264
C        117.21414       46.50710        4.67090
O        117.80168       46.66525        3.60937
C        114.74265       46.57265        4.79361
C        113.47172       47.17316        5.34084
C        113.20329       47.10973        6.71681
C        112.51288       47.73367        4.48279
C        111.99519       47.57962        7.22969
C        111.30930       48.22737        5.00061
C        111.04478       48.14254        6.37672
O        109.88083       48.59351        6.88563
H        115.86516       48.46794        3.19217
H        116.13002       47.65712        6.11886
H        114.81477       45.55977        5.23129
H        114.65261       46.41855        3.69430
H        113.91169       46.67217        7.38926
H        112.69719       47.78886        3.41755
H        111.79558       47.49705        8.29138
H        110.57849       48.66376        4.33277
H        109.19827       48.98635        6.32395
N        117.55146       45.48651        5.50933
C        118.46680       44.39051        5.18339
C        117.68534       43.05437        5.12814
O        118.21800       42.05998        4.65312
C        119.66550       44.38885        6.18725
C        119.21570       44.13901        7.65489
C        120.76126       43.40018        5.75955
C        120.35404       44.20231        8.67255
H        117.07872       45.46149        6.41363
H        118.87179       44.56295        4.16164
H        120.11740       45.40464        6.13364
H        118.72118       43.15087        7.74671
H        118.49610       44.92186        7.95579
H        120.42603       42.35012        5.87914
H        121.05251       43.58249        4.70450
H        121.67452       43.55073        6.37226
H        121.05914       43.35791        8.53240
H        120.89815       45.16578        8.58077
H        119.93709       44.12327        9.69918
N        116.38738       42.99300        5.56163
C        115.47898       41.87031        5.41542
C        115.49390       40.91412        6.60017
O        114.81181       39.90567        6.52721
C        114.04852       42.45255        5.29054
O        113.94899       43.24721        4.13725
H        115.96952       43.83067        5.94393
H        115.72270       41.29536        4.49377
H        113.82941       43.09947        6.17259
H        113.26563       41.66228        5.29997
H        113.36014       42.76612        3.50031
N        116.19949       41.18206        7.74317
C        116.18499       40.24691        8.87095
C        116.74570       40.85346       10.14787
O        117.66100       41.65714       10.10253
C        116.96073       38.97168        8.53842
H        116.70395       42.06939        7.83031
H        115.12557       39.98248        9.08568
H        118.01875       39.21998        8.31084
H        116.93032       38.27473        9.40375
H        116.51912       38.44958        7.66577
N        116.19640       40.47609       11.34262
C        116.56257       41.03239       12.64254
C        116.25954       42.51656       12.68892
O        117.10357       43.31412       13.08233
C        117.99458       40.65712       13.03735
H        115.44137       39.77686       11.33284
H        115.89117       40.56236       13.39506
H        118.74140       41.07485       12.33207
H        118.21579       41.03112       14.05975
H        118.09033       39.55011       13.04648
N        115.04433       42.94999       12.25714
C        114.64326       44.34922       12.21327
C        113.27053       44.56625       12.81905
O        113.07551       45.56287       13.50005
C        114.58480       44.81773       10.76511
C        115.95586       44.73186       10.10442
C        115.84083       45.32583        8.75924
O        115.17009       44.76416        7.91336
O        116.39842       46.52248        8.50180
H        114.40910       42.24662       11.85340
H        115.37910       45.01068       12.72785
H        114.26590       45.88709       10.75836
H        113.84129       44.22576       10.18534
H        116.29863       43.68549       10.01022
H        116.70281       45.29737       10.69959
N        112.23946       43.71741       12.53540
C        110.89643       43.96380       13.00392
H        110.22475       43.15602       12.64148
H        110.86874       43.98561       14.11308
H        110.53604       44.93059       12.59430
H        112.39729       42.87958       11.96141
Ca       116.48847       50.98063       11.28479
O        115.62412       49.66080        9.00734
H        115.67992       48.74227        9.35668
H        115.67982       49.54754        8.03452
O        114.20015       49.52988       12.10258
H        113.44821       49.69878       11.48241
H        113.77572       49.40256       12.98678
O        116.25363       50.87318       14.00899
H        115.56625       50.38758       14.52815
H        116.30517       51.77026       14.42288
O        114.11037       51.73677        9.86672
H        113.32518       52.24988       10.17621
H        113.89934       51.48783        8.93257
O        116.89959       48.15966       11.50685
H        117.63393       47.64723       11.92467
H        116.16910       47.50538       11.38266
O        118.99944       50.13344       12.67760
H        119.63851       49.73921       12.03382
H        118.71581       49.37057       13.23595
O        118.31639       49.80570        9.59332
H        118.15982       49.12527        8.89482
H        119.29526       49.86466        9.66278

Ca 1.70



