%chk=loop1.cluster66.chk
%nprocshared=48
%mem=10GB
%nosave
#b3lyp/svp scf=(tight,noincore) Test 
#IOP(5/87=12) Density=Current Pop=(MK,readradii) iop(6/33=2) iop(6/42=6)

loop1.cluster66 

   0  1 
C         38.23076      -19.44129       26.29017
C         39.04793      -20.46699       27.01758
O         40.04359      -20.92283       26.48136
H         37.34715      -19.13166       26.88800
H         38.85548      -18.54442       26.09801
H         37.87585      -19.86030       25.32663
N         38.68758      -20.85511       28.26964
C         39.43474      -21.82127       29.06642
C         38.54498      -22.96723       29.52138
O         38.95712      -23.71019       30.40533
C         40.08880      -21.09385       30.26733
C         39.16563      -20.38968       31.21362
O         38.49018      -19.44965       30.83043
O         39.14915      -20.73857       32.51522
H         37.85268      -20.42671       28.69356
H         40.27735      -22.26730       28.49602
H         40.80851      -20.34360       29.87260
H         40.64589      -21.83655       30.86887
N         37.29849      -23.16376       28.99201
C         36.36479      -24.13181       29.54517
C         35.78399      -25.08888       28.48793
O         34.70165      -24.79504       27.99737
C         35.22756      -23.33784       30.24193
C         35.76788      -22.51238       31.42372
C         34.64665      -21.80449       32.20005
C         35.18814      -21.00875       33.40350
N         35.85963      -19.77467       32.99366
H         36.95593      -22.54879       28.23863
H         36.82021      -24.71080       30.35665
H         34.47018      -24.05457       30.62739
H         34.72992      -22.65701       29.51306
H         36.50089      -21.77466       31.04439
H         36.28739      -23.20224       32.12569
H         33.96562      -22.59196       32.58838
H         34.06004      -21.12983       31.53888
H         35.88087      -21.64920       33.99520
H         34.33886      -20.73065       34.06378
H         36.61442      -19.97020       32.30886
H         35.16622      -19.12054       32.56325
H         36.28341      -19.31468       33.83139
N         36.34673      -26.29345       28.11542
C         37.65393      -26.84425       28.49752
C         37.76568      -27.11580       30.00660
O         36.75966      -26.96694       30.69189
C         38.74789      -25.95529       27.87541
C         39.85976      -26.61361       27.11028
O         40.84855      -25.80264       26.70319
O         39.87161      -27.80830       26.84390
H         35.80342      -26.86550       27.44954
H         37.72095      -27.83906       28.00669
H         39.20286      -25.34118       28.66141
H         38.30367      -25.26911       27.12289
N         38.89142      -27.57534       30.63729
C         40.18309      -27.82898       29.99824
C         41.12371      -28.56030       30.95478
O         40.63211      -29.20762       31.86032
H         38.81319      -27.74209       31.65037
H         40.60364      -26.86236       29.68309
H         40.04533      -28.50617       29.13826
N         42.48804      -28.57980       30.81176
C         43.28227      -27.89456       29.79691
C         43.08621      -26.37465       29.75322
O         43.11887      -25.82338       28.67184
C         44.78849      -28.24988       29.92028
C         45.41978      -27.89921       31.25183
O         46.34225      -27.10278       31.29734
O         45.02560      -28.51242       32.38510
H         42.98864      -29.17293       31.49051
H         42.95678      -28.27797       28.80161
H         45.34158      -27.73173       29.10619
H         44.91696      -29.34357       29.76346
N         42.74299      -25.67241       30.87391
C         42.24142      -24.29815       30.77413
C         43.23282      -23.22735       30.38201
O         42.79423      -22.13073       30.04698
H         42.68937      -26.14802       31.77990
H         41.80933      -23.99121       31.74970
H         41.41368      -24.30539       30.03601
N         44.57380      -23.40508       30.42868
C         45.50868      -22.31720       30.13464
C         45.22175      -21.68389       28.77251
O         44.90181      -22.40188       27.83768
C         46.98666      -22.75563       30.30638
C         47.39380      -23.97119       29.45880
O         47.26720      -22.99689       31.66490
H         44.93061      -24.32759       30.72562
H         45.34765      -21.50472       30.88007
H         47.63103      -21.90304       29.99967
H         46.75690      -23.79547       31.95619
H         48.46254      -24.20858       29.64220
H         46.80445      -24.87299       29.72149
H         47.25690      -23.76021       28.38350
N         45.29779      -20.32262       28.61205
C         44.95971      -19.63987       27.35304
C         46.23566      -19.37978       26.55805
O         46.49860      -18.27483       26.10324
C         43.99199      -18.44062       27.63607
C         43.39712      -17.83629       26.33930
C         44.62647      -17.33157       28.51166
C         42.07606      -17.09991       26.60598
H         45.64343      -19.76045       29.40046
H         44.39297      -20.35145       26.71316
H         43.14422      -18.89031       28.20008
H         43.14817      -18.64968       25.62631
H         44.13005      -17.15853       25.84856
H         45.50177      -16.87382       28.00539
H         43.90198      -16.52251       28.73140
H         44.95521      -17.71517       29.49605
H         41.66755      -16.69739       25.65595
H         41.33168      -17.81554       27.02130
H         42.19224      -16.25916       27.31799
N         47.08620      -20.42736       26.38011
C         48.37259      -20.38663       25.69890
C         48.28620      -20.28840       24.17756
O         49.30928      -20.03359       23.55869
C         49.17147      -21.67633       26.06535
C         48.45969      -22.98387       25.63101
O         49.36880      -21.70191       27.45668
H         46.83373      -21.29629       26.84980
H         48.93841      -19.50787       26.08342
H         50.16014      -21.62475       25.55406
H         50.14607      -22.29360       27.63159
H         47.48428      -23.13625       26.12896
H         48.26610      -23.00062       24.54450
H         49.08175      -23.86387       25.88947
N         47.13708      -20.59901       23.50250
C         47.04522      -20.68459       22.03709
C         47.98184      -21.76425       21.47534
O         48.75835      -22.34514       22.22129
C         47.26531      -19.30246       21.35330
C         46.33712      -18.23729       21.93793
O         46.99524      -19.39734       19.97829
H         46.29553      -20.84726       24.04244
H         46.00691      -21.00909       21.80415
H         48.32375      -18.99141       21.50056
H         47.38624      -18.59847       19.53859
H         46.54090      -18.08447       23.01683
H         46.50564      -17.27377       21.41124
H         45.27673      -18.53794       21.79771
N         47.92258      -22.11681       20.15797
C         48.83093      -23.06399       19.54539
C         48.27616      -24.45007       19.19215
O         49.11842      -25.25570       18.81710
C         49.37554      -22.46164       18.22850
C         50.13953      -21.14792       18.40967
C         50.72255      -20.69900       17.06145
C         51.68062      -19.51619       17.23036
N         52.36136      -19.21861       15.97011
H         47.28546      -21.62125       19.54014
H         49.68600      -23.25252       20.23413
H         48.52849      -22.30231       17.52168
H         50.07411      -23.19232       17.76343
H         50.97244      -21.33657       19.11930
H         49.48217      -20.35331       18.82621
H         49.90392      -20.43484       16.35305
H         51.30083      -21.54359       16.62870
H         52.44964      -19.77834       17.99072
H         51.12269      -18.62196       17.58580
H         52.92555      -20.04762       15.66893
H         51.66728      -18.97837       15.22624
H         53.01013      -18.41163       16.11263
N         46.97184      -24.88710       19.20121
C         45.71387      -24.25937       19.60500
C         45.38989      -22.95175       18.90996
O         45.01076      -21.98944       19.56511
C         45.55194      -24.32459       21.13621
C         44.08986      -24.17513       21.58847
C         43.96524      -24.55329       23.03101
O         43.50377      -23.66558       23.93085
O         44.27469      -25.67897       23.38978
H         46.85027      -25.85718       18.86600
H         44.93057      -24.95545       19.23041
H         46.19984      -23.60910       21.67201
H         45.87663      -25.34762       21.43041
H         43.44014      -24.86968       21.01111
H         43.72804      -23.13879       21.42667
N         45.49056      -22.85635       17.55647
C         45.21839      -21.61756       16.85669
H         44.20586      -21.24268       17.11609
H         45.97727      -20.85041       17.12641
H         45.26298      -21.78735       15.76021
H         45.76894      -23.68375       17.00912
Ca        42.82629      -26.04556       25.70770
O         41.01762      -26.39276       23.58648
H         40.51482      -25.56397       23.38699
H         40.34439      -27.01167       23.96555
O         45.63671      -25.32675       26.23673
H         46.58206      -25.60761       26.31158
H         45.57071      -24.52866       26.81445
O         44.06115      -28.34300       25.77868
H         43.39062      -28.94920       26.18187
H         44.90597      -28.85188       25.75027
O         42.04614      -23.34741       26.72761
H         42.02718      -22.36635       26.62308
H         42.43791      -23.49073       27.62359

Ca 1.70



