%chk=loop1.cluster138.chk
%nprocshared=48
%mem=10GB
%nosave
#b3lyp/svp scf=(tight,noincore) Test 
#IOP(5/87=12) Density=Current Pop=(MK,readradii) iop(6/33=2) iop(6/42=6)

loop1.cluster138 

   0  1 
C         78.10832       59.11375       24.26172
C         78.71985       59.50559       22.96000
O         78.25015       59.07617       21.91622
H         77.16228       58.55768       24.09791
H         78.82504       58.48137       24.82394
H         77.88902       60.03276       24.84570
N         79.75900       60.38020       22.94816
C         80.32561       60.87361       21.71058
C         81.30757       59.85202       21.15971
O         82.39162       59.68138       21.69695
C         80.95243       62.23431       21.97348
C         81.39533       62.95182       20.75903
O         81.90190       64.16849       20.92018
O         81.26422       62.48441       19.63879
H         80.06734       60.79074       23.84312
H         79.48775       61.05778       20.99495
H         81.80686       62.13002       22.67536
H         80.18572       62.88892       22.44484
N         80.90485       59.05209       20.14566
C         81.65945       57.91287       19.63754
C         82.87508       58.28485       18.83656
O         83.96323       57.82184       19.16564
C         80.69123       57.01294       18.84397
C         79.65866       56.34572       19.78357
C         80.35787       55.47692       20.85657
C         79.42134       54.57992       21.65685
N         78.46519       55.34421       22.45699
H         79.94154       59.17218       19.82194
H         82.06933       57.33694       20.47832
H         81.25152       56.20872       18.32448
H         80.16410       57.61105       18.06283
H         79.00326       55.70673       19.15629
H         79.01792       57.10929       20.27382
H         80.89331       56.10196       21.60023
H         81.09310       54.82015       20.34296
H         80.05257       53.96743       22.34049
H         78.88917       53.89664       20.96314
H         78.97007       55.95056       23.14460
H         77.85384       55.93021       21.84634
H         77.86207       54.67051       22.98024
N         82.78936       59.10625       17.76385
C         83.98791       59.56443       17.07114
C         84.72913       60.61798       17.90743
O         85.86084       60.93839       17.58577
C         83.69337       59.97450       15.60869
C         82.81199       61.18057       15.50097
O         83.20813       62.17932       14.92076
O         81.58921       61.16183       16.06678
H         81.86484       59.48259       17.52965
H         84.67005       58.68829       16.97400
H         83.18760       59.12302       15.10414
H         84.65338       60.16206       15.07681
N         84.15500       61.14860       19.03640
C         84.86683       62.01929       19.96221
C         85.28070       63.31560       19.32200
O         86.46915       63.59849       19.24763
H         83.19390       60.89489       19.28621
H         85.74678       61.47407       20.36125
H         84.19879       62.25267       20.82223
N         84.33624       64.15893       18.83186
C         84.63956       65.39787       18.11750
C         84.04959       66.64938       18.78597
O         84.13549       67.72172       18.20979
C         84.16201       65.24538       16.66110
C         82.67523       65.21433       16.48134
O         81.89771       64.58160       17.37119
O         82.19912       65.58279       15.42400
H         83.35819       63.87018       18.93827
H         85.73728       65.54665       18.05661
H         84.57982       64.29495       16.25443
H         84.56410       66.06247       16.02782
N         83.43601       66.57068       20.00427
C         82.83521       67.70261       20.70281
C         81.31544       67.67407       20.70057
O         80.71671       68.57055       21.28403
H         83.42204       65.67836       20.48365
H         83.12465       68.66240       20.22873
H         83.21456       67.70578       21.74612
N         80.62098       66.75465       19.97478
C         79.20442       66.90378       19.65851
C         78.46068       65.57809       19.71653
O         78.84778       64.63111       19.04065
C         79.06889       67.55405       18.24290
C         79.15559       69.07464       18.33122
O         80.07667       67.14082       17.35991
H         81.14808       66.03925       19.45500
H         78.68999       67.58031       20.37505
H         78.07041       67.32739       17.80705
H         80.19261       66.17375       17.48533
H         80.14207       69.39465       18.72453
H         79.01588       69.51164       17.31939
H         78.34843       69.45979       18.98948
N         77.30826       65.48109       20.44768
C         76.43477       64.31750       20.40900
C         75.36619       64.56098       19.34667
O         74.67916       65.57300       19.40038
C         75.76204       64.04333       21.79147
C         76.79658       63.95133       22.94430
C         74.91581       62.75466       21.69291
C         76.14679       63.68376       24.31000
H         76.95754       66.32433       20.92868
H         77.02811       63.40993       20.15337
H         75.08254       64.89143       22.03174
H         77.32601       64.92604       23.01919
H         77.55008       63.15964       22.74363
H         74.36576       62.53909       22.62795
H         74.13746       62.86041       20.91422
H         75.56114       61.88599       21.44356
H         76.90932       63.73631       25.11381
H         75.35496       64.43505       24.52051
H         75.70486       62.66712       24.35190
N         75.14000       63.62687       18.38437
C         74.10804       63.73116       17.35626
C         72.90274       62.90692       17.75713
O         72.96026       62.20508       18.75616
C         74.66529       63.20308       15.99809
C         75.79007       64.07350       15.44970
O         75.10131       61.87347       16.11556
H         75.66050       62.75362       18.44663
H         73.76297       64.78250       17.25632
H         73.86924       63.19679       15.22583
H         76.04597       61.85931       16.41021
H         76.25235       63.56762       14.57252
H         75.39071       65.05561       15.13204
H         76.56346       64.21122       16.23159
N         71.75781       62.94335       17.01455
C         70.63212       62.05316       17.29638
C         71.05362       60.61745       17.05984
O         70.56836       59.71963       17.73276
C         69.38991       62.35176       16.42625
C         68.84146       63.76035       16.66950
O         69.68941       62.18026       15.06365
H         71.70721       63.58575       16.20916
H         70.32937       62.17870       18.36082
H         68.60860       61.61746       16.73443
H         68.82422       62.17681       14.57650
H         69.53124       64.53011       16.26593
H         67.86042       63.86293       16.15878
H         68.68901       63.93571       17.75519
N         71.96962       60.34401       16.09183
C         72.47825       59.01276       15.81786
C         73.16708       58.44904       17.05195
O         72.86137       57.34091       17.46754
C         73.44340       59.11592       14.60868
C         73.88438       57.77263       14.01437
C         72.71266       56.85583       13.61188
C         71.70315       57.54178       12.66971
N         70.62520       56.62891       12.30086
H         72.32604       61.12528       15.52087
H         71.61767       58.37262       15.53869
H         74.34015       59.71631       14.87074
H         72.93190       59.67967       13.79812
H         74.53337       57.23491       14.73732
H         74.49344       57.99559       13.10959
H         72.18593       56.49862       14.52113
H         73.13910       55.96208       13.10863
H         72.23361       57.88661       11.75617
H         71.24053       58.42752       13.15806
H         71.01744       55.73894       11.91897
H         70.03181       56.42692       13.13886
H         70.03248       57.08430       11.56964
N         74.09060       59.20247       17.70759
C         74.78082       58.78549       18.92598
C         73.81956       58.63084       20.09731
O         74.12280       57.86541       21.00115
C         75.91505       59.79645       19.24472
C         77.02193       59.67656       18.16551
C         78.08716       60.74455       18.17128
O         77.78867       61.92201       18.13166
O         79.37376       60.40249       18.01169
H         74.29240       60.13049       17.33206
H         75.25332       57.79555       18.74879
H         76.35651       59.62516       20.24626
H         75.45932       60.80382       19.25802
H         76.56117       59.71014       17.16092
H         77.50697       58.68129       18.27177
N         72.63529       59.30836       20.14200
C         71.65825       59.13223       21.19886
H         70.69513       58.80963       20.74823
H         71.96392       58.36655       21.94128
H         71.49738       60.09609       21.72552
H         72.40590       59.97308       19.39815
Ca        80.52789       63.02290       16.63841
O         78.87540       65.08214       15.73263
H         78.25541       65.14049       14.96968
H         79.64428       65.62389       15.43478
O         80.53811       63.53572       13.48678
H         81.02548       62.77941       13.89523
H         80.98262       64.33426       13.85208
O         78.42802       61.77063       15.04939
H         77.76063       61.07837       14.82395
H         78.93452       61.88098       14.21075

Ca 1.70



