%chk=loop4.cluster39.chk
%nprocshared=48
%mem=10GB
%nosave
#b3lyp/svp scf=(tight,noincore) Test 
#IOP(5/87=12) Density=Current Pop=(MK,readradii) iop(6/33=2) iop(6/42=6)

loop4.cluster39 

   -3  1 
C         59.46537       58.83794       46.22729
C         58.65818       59.43954       47.33129
O         57.61937       60.02399       47.05589
H         60.41271       58.40865       46.61383
H         58.87267       58.02927       45.75065
H         59.70384       59.61675       45.47410
N         59.05343       59.30067       48.62769
C         58.23874       59.79485       49.71989
C         58.54229       61.27762       49.95989
O         59.68565       61.63136       50.21198
C         58.44254       58.93253       50.97935
C         57.29693       59.17617       51.90600
O         56.08674       58.63318       51.62810
O         57.43596       59.93754       52.83540
H         59.89171       58.73866       48.84140
H         57.17064       59.64548       49.43673
H         59.42692       59.16567       51.44143
H         58.42043       57.84724       50.73848
N         57.53533       62.18974       49.87727
C         57.68295       63.64262       49.96447
C         57.04509       64.20752       51.24059
O         57.34448       65.34550       51.58417
C         56.97846       64.24962       48.70135
C         57.64300       63.74940       47.39235
C         56.91923       65.78943       48.73521
C         56.77121       63.97036       46.14691
H         56.60698       61.83439       49.68383
H         58.76342       63.91399       49.99719
H         55.92808       63.87610       48.70752
H         57.80822       62.65379       47.43829
H         58.63161       64.23910       47.26941
H         57.93638       66.21254       48.86794
H         56.47019       66.20989       47.81725
H         56.26357       66.13321       49.56166
H         56.50510       65.03130       45.98603
H         57.31514       63.61463       45.24797
H         55.83118       63.38631       46.22424
N         56.18063       63.47932       52.00613
C         55.56173       64.00753       53.22403
C         56.26956       63.48272       54.48381
O         55.94936       63.94845       55.56678
C         54.03842       63.64476       53.27363
C         53.86869       62.15371       53.20718
O         54.64590       61.46228       53.81482
O         52.99194       61.52495       52.42104
H         55.97884       62.50707       51.74025
H         55.66208       65.11524       53.25996
H         53.45530       64.12831       52.46282
H         53.62889       63.98985       54.24804
N         57.20996       62.48691       54.41681
C         57.90578       61.98385       55.59617
C         57.27848       60.76854       56.27866
O         57.67730       60.49495       57.40313
H         57.48563       62.11868       53.50475
H         57.94788       62.79542       56.35169
H         58.96832       61.77519       55.34330
N         56.33515       59.96750       55.68728
C         55.67939       58.85958       56.38255
C         56.18775       57.48388       55.93936
O         55.81298       56.49769       56.55305
C         54.13291       58.97170       56.30549
C         53.51087       58.81134       54.94804
O         52.63194       59.72887       54.51261
O         53.70226       57.80563       54.28949
H         56.10451       60.11047       54.70982
H         55.92448       58.92343       57.46354
H         53.81561       59.95885       56.70746
H         53.69194       58.18337       56.94818
N         57.10060       57.35596       54.93231
C         57.77500       56.10079       54.62626
C         57.07160       55.21243       53.62577
O         57.66457       54.21137       53.23589
H         57.45126       58.19328       54.46615
H         58.02470       55.55438       55.56063
H         58.74194       56.36818       54.14823
N         55.82364       55.48590       53.15273
C         55.17774       54.69188       52.11019
C         54.61294       55.58430       51.03801
O         54.32661       56.74663       51.30152
C         54.08529       53.78266       52.68378
C         54.70698       52.74997       53.63442
C         53.70472       51.81400       54.24987
N         54.11140       50.93237       55.19022
O         52.52800       51.85199       53.91989
H         55.31586       56.28829       53.54012
H         55.92844       54.03693       51.61152
H         53.58029       53.24293       51.85177
H         53.33066       54.39747       53.22301
H         55.21352       53.28731       54.46155
H         55.46390       52.14414       53.08528
H         55.09886       50.90655       55.48629
H         53.43648       50.29484       55.63570
N         54.42135       55.10491       49.78344
C         54.08559       55.96573       48.66336
C         52.62402       55.83309       48.31541
O         52.21273       54.81330       47.77549
C         55.03700       55.64484       47.48202
C         54.64891       56.32192       46.16003
C         56.48012       56.03296       47.85132
H         54.61350       54.10592       49.59847
H         54.25081       57.01780       48.94405
H         54.98016       54.54779       47.30900
H         54.75406       57.41699       46.23032
H         55.31018       55.95437       45.34765
H         53.60705       56.07501       45.86989
H         56.78173       55.59249       48.82492
H         57.18515       55.67167       47.07539
H         56.57261       57.13932       47.93386
N         51.77061       56.85558       48.61513
C         50.37029       56.85503       48.23145
C         50.22174       57.17032       46.75386
O         51.21452       57.37762       46.06912
C         49.54310       57.82891       49.11467
C         49.47116       59.27762       48.67159
N         50.57737       60.03682       48.53828
O         48.37706       59.77070       48.43854
H         52.12288       57.63228       49.18579
H         49.96493       55.84389       48.46132
H         49.90861       57.75170       50.15605
H         48.49510       57.46009       49.13082
H         51.50510       59.64981       48.71290
H         50.50109       61.01930       48.24140
N         48.98607       57.24715       46.20469
C         48.74491       57.51674       44.79588
C         49.25825       58.88242       44.32451
O         49.81443       58.95505       43.24009
C         47.23695       57.42850       44.52590
C         46.98727       57.46084       43.04893
C         47.38660       56.37501       42.25274
C         46.38940       58.57823       42.45460
C         47.19193       56.40874       40.87377
C         46.20552       58.61573       41.07154
C         46.60771       57.52983       40.27660
O         46.44217       57.55880       38.94035
H         48.17592       57.06596       46.81741
H         49.25407       56.72110       44.20503
H         46.73638       58.27090       45.05306
H         46.81802       56.47918       44.92723
H         47.84907       55.50479       42.70473
H         46.09032       59.42559       43.05987
H         47.50335       55.56636       40.26943
H         45.75791       59.48981       40.61834
H         46.06000       58.32745       38.49480
N         49.05467       60.01185       45.06507
C         49.53405       61.33102       44.63207
C         51.04461       61.33029       44.43871
O         51.51521       61.80960       43.41443
C         49.13696       62.44963       45.62061
C         47.61672       62.65436       45.72034
C         47.31169       63.88763       46.52528
O         47.77699       64.00875       47.78327
O         46.65773       64.79408       46.03323
H         48.56453       59.92798       45.96272
H         49.06202       61.59734       43.66063
H         49.57985       63.39975       45.24692
H         49.55032       62.25240       46.62940
H         47.14090       61.77366       46.20002
H         47.18198       62.77662       44.70276
N         51.86709       60.77482       45.36989
C         53.31710       60.66385       45.19490
C         53.67561       59.78277       44.01033
O         54.75923       59.93380       43.46640
C         53.94053       60.05294       46.45772
C         53.96317       61.06879       47.60194
C         54.20140       60.44304       48.92466
O         54.49065       61.23424       49.96108
O         53.89017       59.28590       49.12575
H         51.43556       60.36794       46.21054
H         53.75177       61.67445       45.02203
H         54.99339       59.73348       46.29081
H         53.33930       59.15336       46.71638
H         53.01416       61.63238       47.69279
H         54.78156       61.78929       47.40634
N         52.83546       58.79738       43.59688
C         53.13299       57.95424       42.46228
H         54.10712       57.44502       42.61020
H         52.33867       57.18427       42.35443
H         53.15893       58.56603       41.53543
H         51.96786       58.63053       44.10883
Ca        54.02133       59.59059       51.85503
O         50.95682       59.22852       51.88021
H         49.98666       59.42000       51.84614
H         51.10221       58.90135       52.80050

Ca 1.70



