%chk=loop2.cluster75.chk
%nprocshared=48
%mem=10GB
%nosave
#b3lyp/svp scf=(tight,noincore) Test 
#IOP(5/87=12) Density=Current Pop=(MK,readradii) iop(6/33=2) iop(6/42=6)

loop2.cluster75 

   -2  1 
C         86.98053       53.72738      -22.77041
C         85.78577       53.18876      -22.02776
O         85.99205       52.49031      -21.04631
H         87.90445       53.24699      -22.37767
H         86.92426       53.48026      -23.84909
H         87.07883       54.82309      -22.61981
N         84.49211       53.42800      -22.40657
C         84.07772       54.19788      -23.57869
C         83.29863       53.34772      -24.58035
O         82.94042       52.21769      -24.27786
C         83.27541       55.46947      -23.16622
C         82.19393       55.42857      -22.09279
O         81.64268       56.47698      -21.79737
O         81.96554       54.34980      -21.31711
H         83.75480       52.99343      -21.84129
H         84.96276       54.55230      -24.14366
H         82.83242       55.92315      -24.07825
H         84.01785       56.19460      -22.77495
N         83.00549       53.86543      -25.82117
C         82.20938       53.19117      -26.85654
C         80.73821       52.99368      -26.49966
O         79.97749       52.60517      -27.37710
C         82.85935       51.88155      -27.33792
H         83.36529       54.80487      -26.04908
H         82.16692       53.86942      -27.74168
H         82.09796       51.18503      -27.75227
H         83.58367       52.09726      -28.15203
H         83.39522       51.35400      -26.52740
N         80.24437       53.31811      -25.27445
C         78.82770       53.26030      -24.95517
C         78.55697       54.09049      -23.72742
O         78.96934       53.72298      -22.64875
C         78.28414       51.82105      -24.78855
C         79.17636       50.73300      -24.19083
O         79.79107       50.80391      -22.98447
O         79.28145       49.68851      -24.81299
H         80.87109       53.71015      -24.56633
H         78.25705       53.75986      -25.77094
H         78.01300       51.45677      -25.80401
H         77.32301       51.87390      -24.22932
N         77.88921       55.26927      -23.81946
C         77.70176       56.09808      -22.65066
C         76.75523       55.43745      -21.68359
O         75.59120       55.26149      -22.01188
H         77.55832       55.61020      -24.73342
H         77.28107       57.08049      -22.94156
H         78.69877       56.28605      -22.18700
N         77.19863       55.05365      -20.45765
C         76.33350       54.47711      -19.43307
C         76.28555       55.38915      -18.21494
O         75.25070       55.45041      -17.56481
C         76.85952       53.09407      -19.01622
C         76.97712       52.13925      -20.17900
N         75.87523       51.67386      -20.81214
O         78.08318       51.76810      -20.54046
H         78.19970       55.17350      -20.24794
H         75.29228       54.35163      -19.80739
H         76.20254       52.64030      -18.24114
H         77.86011       53.24002      -18.56662
H         74.93282       51.94912      -20.50078
H         75.96976       51.01481      -21.60002
N         77.36904       56.14219      -17.84919
C         77.36170       57.01428      -16.69223
C         77.35996       56.22193      -15.40404
O         77.36365       55.00095      -15.45231
H         78.23171       56.12249      -18.40475
H         76.49902       57.71079      -16.75978
H         78.30124       57.61142      -16.69790
N         77.40792       56.82974      -14.18699
C         77.37960       58.27181      -13.97460
C         78.72098       58.73832      -13.40006
O         78.85820       59.91287      -13.09603
C         76.18015       58.56175      -13.02029
C         75.76771       60.03499      -12.93386
O         75.05249       57.84596      -13.46086
H         77.46246       56.22674      -13.34927
H         77.20757       58.81911      -14.92397
H         76.44490       58.22573      -11.98790
H         75.11065       56.93765      -13.05927
H         74.86793       60.11813      -12.28352
H         76.55838       60.67434      -12.49763
H         75.49183       60.41709      -13.94054
N         79.75121       57.84619      -13.20176
C         80.99660       58.17638      -12.51522
C         80.66167       58.75781      -11.14310
O         80.86820       59.94770      -10.93574
C         81.93266       59.10241      -13.34749
C         82.26431       58.47521      -14.72806
C         83.26852       59.32035      -12.57538
C         82.96224       59.45900      -15.66808
H         79.64014       56.86547      -13.48475
H         81.58485       57.24137      -12.37387
H         81.40505       60.06990      -13.48551
H         81.34444       58.13159      -15.24572
H         82.91172       57.58102      -14.57620
H         83.13099       59.55395      -11.50291
H         83.89372       58.40009      -12.60312
H         83.84791       60.16158      -13.00023
H         82.25449       60.26985      -15.94130
H         83.86643       59.90654      -15.21069
H         83.27556       58.93214      -16.59344
N         80.16012       58.00768      -10.12450
C         79.91419       56.57068      -10.19142
C         81.14022       55.83489       -9.71386
O         81.72837       55.09435      -10.49604
C         78.60995       56.17175       -9.44937
C         78.46986       56.49135       -7.97095
O         77.57207       55.80370       -7.24311
O         78.95722       57.50065       -7.48957
H         80.07415       58.47879       -9.21890
H         79.75345       56.25500      -11.24180
H         78.49421       55.07151       -9.55923
H         77.74478       56.63597       -9.96725
N         81.61237       56.01502       -8.45103
C         82.85734       55.44686       -7.98070
C         82.64298       54.39985       -6.91066
O         81.62327       54.43640       -6.22418
C         83.78787       56.57769       -7.45857
C         83.19199       57.50502       -6.41357
C         82.49469       58.65801       -6.81836
C         83.39000       57.27269       -5.03871
C         82.00512       59.56035       -5.86951
C         82.89800       58.18239       -4.09222
C         82.20985       59.32574       -4.50833
H         81.08918       56.61048       -7.80423
H         83.36826       54.94241       -8.82628
H         84.10431       57.20043       -8.32112
H         84.72936       56.17504       -7.04247
H         82.34244       58.86117       -7.87069
H         83.93328       56.39887       -4.70133
H         81.47690       60.44880       -6.19123
H         83.05920       58.00850       -3.03547
H         81.84037       60.03398       -3.77662
N         83.59999       53.45614       -6.65447
C         84.81713       53.30999       -7.44248
C         84.58676       52.55741       -8.74117
O         83.48120       52.12270       -9.02930
C         85.74819       52.59221       -6.47177
C         84.79948       51.69624       -5.69008
C         83.56491       52.58420       -5.50462
H         85.29260       54.26741       -7.70494
H         86.62569       52.09238       -6.93351
H         86.12421       53.36170       -5.76089
H         84.53028       50.85002       -6.35803
H         85.21954       51.29593       -4.74212
H         82.64334       51.96334       -5.44276
H         83.65886       53.22240       -4.59840
N         85.64064       52.40603       -9.59157
C         85.57316       51.66348      -10.83971
C         86.52376       52.20173      -11.93170
O         86.89490       51.41430      -12.79171
C         85.83730       50.15798      -10.54247
C         87.02261       49.90186       -9.58263
C         88.31150       50.56524       -9.98152
O         88.91731       50.19756      -10.97386
O         88.80793       51.56812       -9.22926
H         86.55409       52.76352       -9.29053
H         84.55735       51.73950      -11.29088
H         85.95286       49.59067      -11.49117
H         84.94153       49.73557      -10.03628
H         87.18664       48.80971       -9.46265
H         86.73055       50.29544       -8.58711
N         86.86686       53.51824      -12.09233
C         86.48046       54.60802      -11.22281
H         85.39941       54.57021      -10.98225
H         87.11875       54.62206      -10.31428
H         86.67152       55.56925      -11.74610
H         87.42736       53.76616      -12.92319
Ca        80.92827       52.43474      -21.89304
O         80.57844       50.03359      -19.24573
H         80.69509       49.95861      -18.26541
H         79.86190       49.38489      -19.45785
O         82.92771       52.71080      -19.29289
H         82.91998       53.66580      -19.03093
H         83.85420       52.54856      -19.59474
O         82.50979       50.03431      -21.71902
H         81.85827       49.50589      -22.24436
H         83.25776       50.19791      -22.34578
O         80.28366       52.86316      -18.21553
H         80.13235       52.11061      -17.59176
H         80.49086       53.62953      -17.62556

Ca 1.70



