%chk=loop3.cluster185.chk
%nprocshared=48
%mem=10GB
%nosave
#b3lyp/svp scf=(tight,noincore) Test 
#IOP(5/87=12) Density=Current Pop=(MK,readradii) iop(6/33=2) iop(6/42=6)

loop3.cluster185 

   0  1 
C         -8.88284      -21.42326       58.29207
C         -9.24712      -22.80142       57.83269
O        -10.25763      -22.98437       57.16783
H         -7.89735      -21.15147       57.85511
H         -9.63714      -20.67138       57.98574
H         -8.78909      -21.42222       59.39923
N         -8.43336      -23.83140       58.16999
C         -8.62531      -25.21205       57.76514
C         -8.81507      -26.03964       59.02745
O         -8.00561      -25.93536       59.93967
C         -7.36723      -25.61368       56.98646
C         -7.32598      -27.03062       56.53372
O         -8.39069      -27.84443       56.68198
O         -6.30173      -27.44978       56.02290
H         -7.60458      -23.61932       58.74828
H         -9.51104      -25.33178       57.09659
H         -6.48481      -25.44441       57.63748
H         -7.26904      -24.96879       56.08348
N         -9.91789      -26.82400       59.17937
C        -10.27525      -27.44403       60.45871
C         -9.40576      -28.61656       60.89677
O         -9.58490      -29.09208       62.00883
C        -11.77917      -27.74744       60.46764
C        -12.26252      -28.82252       59.46831
C        -13.78996      -28.73385       59.27456
C        -14.20223      -27.46375       58.48802
N        -15.65313      -27.34127       58.38819
H        -10.59374      -26.85511       58.40032
H        -10.14809      -26.65975       61.23837
H        -12.22587      -26.76682       60.23356
H        -12.12905      -28.01825       61.48652
H        -11.98083      -29.82014       59.87272
H        -11.79082      -28.72883       58.46794
H        -14.28805      -28.76392       60.26761
H        -14.13068      -29.61599       58.68925
H        -13.75780      -27.51224       57.46872
H        -13.83514      -26.53349       58.96005
H        -15.87930      -26.51600       57.78590
H        -16.06845      -28.20133       57.96590
H        -16.05401      -27.17672       59.34064
N         -8.41201      -29.09441       60.09804
C         -7.44850      -30.10731       60.52809
C         -6.02750      -29.53915       60.58286
O         -5.15281      -30.21883       61.10541
C         -7.54788      -31.35063       59.62050
C         -7.63765      -31.00384       58.15904
O         -8.63611      -31.31018       57.52785
O         -6.66050      -30.32576       57.54057
H         -8.30388      -28.70039       59.15741
H         -7.66428      -30.44305       61.56892
H         -8.48646      -31.88715       59.87862
H         -6.70157      -32.04737       59.81128
N         -5.72680      -28.28535       60.11630
C         -4.41232      -27.67800       60.26664
C         -3.31744      -28.40068       59.51125
O         -2.15705      -28.22097       59.85068
H         -6.45089      -27.71708       59.67387
H         -4.16915      -27.67986       61.35273
H         -4.43552      -26.62010       59.93081
N         -3.61665      -29.26901       58.50355
C         -2.65441      -30.21373       57.95340
C         -2.49417      -30.07308       56.44492
O         -3.48707      -30.03693       55.73128
C         -3.18940      -31.60849       58.30656
C         -2.23588      -32.73458       58.02231
N         -2.71667      -33.97492       57.78886
O         -1.02844      -32.55084       58.07602
H         -4.59077      -29.34791       58.19197
H         -1.66440      -30.09506       58.44563
H         -4.16011      -31.78140       57.78974
H         -3.39449      -31.64273       59.39806
H         -3.73310      -34.14474       57.76615
H         -2.07167      -34.76355       57.63989
N         -1.24567      -30.02998       55.89168
C         -1.01730      -29.90338       54.45729
C         -1.47053      -31.09620       53.62438
O         -1.64379      -30.93402       52.42446
H         -0.42208      -30.06835       56.51077
H          0.07353      -29.78716       54.27173
H         -1.50565      -28.97339       54.09648
N         -1.58127      -32.34535       54.16344
C         -1.92213      -33.53167       53.37084
C         -3.32089      -33.45501       52.76980
O         -4.26623      -33.17911       53.48384
C         -1.81410      -34.81088       54.23939
C         -2.39593      -36.01673       53.52701
C         -3.54726      -36.63925       54.04076
C         -1.84191      -36.48173       52.32248
C         -4.14952      -37.69178       53.34843
C         -2.44831      -37.53584       51.63093
C         -3.61068      -38.13666       52.13791
O         -4.22131      -39.13214       51.46403
H         -1.36971      -32.46815       55.16521
H         -1.18533      -33.64721       52.54470
H         -2.38262      -34.64144       55.17604
H         -0.75152      -34.99436       54.51270
H         -3.99435      -36.28981       54.96348
H         -0.95843      -36.01251       51.90897
H         -5.04744      -38.14935       53.74438
H         -2.02405      -37.87549       50.69486
H         -3.89759      -39.43810       50.60491
N         -3.51464      -33.83003       51.47098
C         -4.79978      -33.92424       50.77689
C         -5.77286      -34.92142       51.42495
O         -6.23058      -34.71022       52.53577
C         -5.49613      -32.55701       50.57853
C         -6.71227      -32.69894       49.61810
C         -4.51057      -31.52110       50.00528
C         -7.75340      -31.61727       49.88393
H         -2.68405      -34.10620       50.92450
H         -4.56168      -34.28545       49.75227
H         -5.85816      -32.22557       51.57165
H         -7.24927      -33.65404       49.77304
H         -6.37381      -32.69898       48.55604
H         -3.67862      -31.34013       50.71431
H         -4.07779      -31.89393       49.04982
H         -5.00735      -30.55023       49.80975
H         -7.33675      -30.59974       49.76892
H         -8.60307      -31.73077       49.19200
H         -8.14614      -31.74745       50.91648
N         -6.18129      -35.99717       50.69755
C         -7.25129      -36.91993       51.10186
C         -7.34339      -38.07124       50.09768
O         -7.46053      -39.21845       50.51182
C         -8.61726      -36.19795       51.23790
O         -8.98975      -35.57725       50.03726
H         -5.72204      -36.14061       49.79316
H         -7.01712      -37.35373       52.09704
H         -8.55753      -35.44259       52.05496
H         -9.40443      -36.93041       51.52962
H         -9.60006      -34.83079       50.28052
N         -7.24831      -37.83242       48.75692
C         -7.26420      -38.84698       47.70884
C         -8.57762      -39.63251       47.64906
O         -8.55143      -40.84412       47.79237
C         -6.01662      -39.74140       47.77895
H         -7.13885      -36.85641       48.43892
H         -7.17330      -38.32531       46.72986
H         -6.00314      -40.38163       48.68308
H         -5.98128      -40.39208       46.87672
H         -5.10398      -39.10676       47.76709
N         -9.77057      -39.02582       47.35217
C         -9.93242      -37.58613       47.20096
C        -10.10039      -37.19418       45.73915
O        -10.45879      -38.05790       44.94925
C        -11.10055      -37.13190       48.08193
H        -10.60307      -39.62518       47.22196
H         -9.05104      -37.08953       47.55948
H        -11.11830      -36.03712       48.20718
H        -12.06448      -37.47459       47.64699
H        -11.00109      -37.56857       49.09939
N         -9.88190      -35.92601       45.26322
C         -9.41748      -34.78843       46.05742
C         -8.34149      -34.00267       45.31154
O         -7.24905      -33.82694       45.83674
C        -10.61590      -33.87593       46.33979
C        -10.27692      -32.80104       47.37387
C        -11.41841      -31.84743       47.56105
O        -12.56029      -32.26304       47.67947
O        -11.18195      -30.52300       47.60839
H        -10.09963      -35.75128       44.27154
H         -9.00577      -35.10771       47.03263
H        -11.44379      -34.48310       46.75673
H        -10.98772      -33.42994       45.39778
H         -9.37779      -32.22177       47.07189
H        -10.06452      -33.31409       48.33757
N         -8.60986      -33.45668       44.08867
C         -7.65942      -32.62414       43.38301
H         -6.72003      -33.18154       43.19021
H         -8.09170      -32.30676       42.40848
H         -7.44147      -31.71050       43.97712
H         -9.52738      -33.61845       43.64846
Ca        -6.99694      -29.88828       55.35065
O         -8.97644      -31.64362       54.37367
H         -9.89851      -31.80363       54.05512
H         -8.56607      -32.54288       54.42003
O         -8.47229      -28.78471       52.96916
H         -8.12145      -27.94194       52.58608
H         -8.79318      -29.30113       52.18783
O         -6.36406      -32.44173       55.85231
H         -6.37019      -33.34692       56.24200
H         -5.89327      -32.52308       54.99216
O         -5.55332      -30.02645       53.04606
H         -5.01541      -30.84265       53.18471
H         -4.92649      -29.38550       52.63197

Ca 1.70



