%chk=loop1.cluster88.chk
%nprocshared=48
%mem=10GB
%nosave
#b3lyp/svp scf=(tight,noincore) Test 
#IOP(5/87=12) Density=Current Pop=(MK,readradii) iop(6/33=2) iop(6/42=6)

loop1.cluster88 

   0  1 
C         73.47882       68.74655       44.51229
C         72.50312       68.71419       43.37602
O         71.30301       68.77421       43.60322
H         74.24578       69.52709       44.31013
H         72.97452       69.00157       45.46780
H         73.98174       67.76287       44.59747
N         72.97649       68.70973       42.09876
C         72.14430       68.85169       40.91018
C         71.16908       70.01333       41.08796
O         69.99415       69.90777       40.76343
C         71.52563       67.49528       40.51200
C         70.99562       67.42906       39.09989
O         70.39300       66.30245       38.67434
O         71.15441       68.35648       38.32070
H         73.99869       68.73942       41.96309
H         72.84579       69.13736       40.09376
H         70.73046       67.22646       41.23680
H         72.32243       66.72104       40.56539
N         71.64199       71.16821       41.62825
C         70.86748       72.38796       41.80065
C         71.28698       73.36920       40.74086
O         70.45714       74.12127       40.24945
C         71.13190       73.02251       43.19751
C         70.61857       72.13177       44.33167
C         70.64340       72.80332       45.71657
C         70.06428       71.82012       46.74970
N         69.98871       72.39815       48.08999
H         72.63473       71.19116       41.90051
H         69.77493       72.21413       41.68539
H         70.59574       73.99624       43.24573
H         72.21879       73.22798       43.34428
H         71.22960       71.20793       44.36438
H         69.56331       71.86930       44.10804
H         70.01778       73.72396       45.69346
H         71.68052       73.08953       46.00113
H         70.70065       70.90796       46.77960
H         69.03940       71.52245       46.43342
H         69.36100       73.23457       48.08896
H         69.58678       71.68081       48.73758
H         70.94164       72.66203       48.42832
N         72.59067       73.44721       40.37480
C         73.10714       74.50778       39.54882
C         72.91513       74.24744       38.03142
O         73.99114       74.86225       37.40743
C         74.57361       74.81393       40.01987
C         74.79101       76.24932       40.41335
O         73.86057       76.88465       41.15358
O         75.89510       76.75011       40.29408
H         73.27463       72.81569       40.80935
H         72.51716       75.42019       39.76166
H         75.35158       74.39639       39.34845
H         74.77156       74.30850       40.98587
N         72.77631       72.81171       37.64150
C         73.14187       72.49468       36.24624
C         74.63176       72.60398       36.02598
O         75.38314       71.80011       36.55579
H         73.18401       72.12012       38.30828
H         72.60632       73.18341       35.56563
H         72.80537       71.47059       35.96993
N         75.10634       73.60984       35.23841
C         76.50885       73.89867       34.97969
C         77.22304       74.61843       36.13609
O         77.71061       75.72360       35.93951
C         76.61173       74.67585       33.63097
C         75.82012       75.94379       33.27899
O         76.07950       76.46499       32.20879
O         74.83436       76.51883       34.01162
H         74.40986       74.19902       34.77074
H         77.05603       72.94361       34.81398
H         76.35928       73.94537       32.83192
H         77.67417       74.94823       33.49282
N         77.34967       74.03878       37.36878
C         77.93933       74.73769       38.50282
C         79.43796       74.83385       38.45159
O         80.05251       74.16311       37.64661
H         76.96549       73.10620       37.53919
H         77.73017       74.16427       39.43303
H         77.47059       75.73512       38.59473
N         80.09718       75.60943       39.36036
C         81.55268       75.59787       39.52432
C         82.32246       75.86016       38.24549
O         82.10155       76.85969       37.57429
C         82.00203       76.53892       40.67098
C         81.67399       75.89083       42.01983
O         83.39543       76.73181       40.62847
H         79.53234       76.19227       39.99818
H         81.84070       74.57286       39.83389
H         81.47750       77.52365       40.58619
H         83.55778       77.68380       40.39084
H         82.03345       76.52733       42.85324
H         80.58587       75.71102       42.13127
H         82.20156       74.91150       42.09205
N         83.29734       74.96604       37.88918
C         84.09020       75.04653       36.67514
C         83.85636       73.79908       35.83613
O         84.72177       73.40537       35.07091
C         85.59077       75.29464       37.00700
C         86.23894       74.14610       37.83551
C         85.72519       76.65664       37.70614
C         87.71303       74.40705       38.15419
H         83.47692       74.16429       38.51109
H         83.74789       75.89840       36.04699
H         86.13590       75.36965       36.04025
H         86.17997       73.20277       37.25124
H         85.71012       73.98340       38.79889
H         85.22347       77.44355       37.10401
H         85.26679       76.62723       38.71535
H         86.78903       76.95185       37.79728
H         87.81264       75.25370       38.86552
H         88.16355       73.51463       38.63646
H         88.27481       74.63742       37.22485
N         82.62379       73.21862       35.84570
C         82.23231       72.14692       34.94602
C         81.56297       71.00725       35.70094
O         81.38267       71.08790       36.90559
C         81.28573       72.73738       33.87390
C         79.97677       73.30542       34.43758
O         81.95752       73.72083       33.12429
H         81.90488       73.61276       36.44806
H         83.11820       71.72868       34.42599
H         81.00007       71.93168       33.16888
H         82.03806       74.53730       33.68586
H         80.15408       74.17931       35.09789
H         79.36763       73.64067       33.58237
H         79.41087       72.53403       34.99988
N         81.14210       69.90789       35.00741
C         80.45546       68.79430       35.65999
C         81.40877       68.02351       36.56937
O         80.96062       67.17747       37.33679
C         79.82491       67.88904       34.57032
C         78.75689       66.94185       35.12979
O         80.83797       67.17858       33.90050
H         81.29137       69.87406       33.99137
H         79.62950       69.23575       36.25950
H         79.30168       68.55811       33.84818
H         80.40206       66.60588       33.21728
H         79.18514       66.21201       35.84227
H         77.96131       67.53327       35.63242
H         78.28356       66.38553       34.29225
N         82.75405       68.22870       36.49421
C         83.73401       67.53660       37.30973
C         84.77572       68.51979       37.83201
O         84.77151       69.68176       37.43457
C         84.38654       66.40133       36.48321
C         84.73518       66.81170       35.03811
C         85.67164       65.79321       34.38739
C         85.81433       66.03282       32.87851
N         86.90397       65.22362       32.33329
H         83.12146       68.86729       35.77107
H         83.25666       67.08056       38.20579
H         83.66889       65.55338       36.39914
H         85.27715       66.02194       37.02576
H         85.24399       67.79905       35.01263
H         83.78282       66.88915       34.46348
H         85.29979       64.75592       34.53618
H         86.65985       65.89615       34.88636
H         86.02264       67.10398       32.66265
H         84.85363       65.75994       32.38374
H         86.80594       64.22372       32.62346
H         86.89326       65.28142       31.28976
H         87.81671       65.59952       32.68124
N         85.71722       68.11098       38.73041
C         86.76658       68.98644       39.24159
C         86.83924       68.92921       40.77268
O         87.83756       68.45358       41.29811
C         88.10933       68.55733       38.61392
C         88.13943       68.78441       37.09617
C         89.52608       68.56089       36.56869
O         89.73425       67.71019       35.71955
O         90.54636       69.31468       37.02444
H         85.71766       67.12352       39.03579
H         86.60725       70.04888       38.95073
H         88.32102       67.48615       38.83824
H         88.90811       69.18124       39.06996
H         87.85755       69.83504       36.86921
H         87.41429       68.10765       36.59148
N         85.84704       69.39760       41.58422
C         84.65415       70.06670       41.11460
H         83.86437       69.97108       41.89009
H         84.85955       71.14846       40.97127
H         84.25156       69.61033       40.19602
H         85.98087       69.33024       42.60561
Ca        73.48643       76.28206       35.78418
O         70.36364       77.90952       35.66324
H         69.53251       77.55363       35.26044
H         70.23629       78.89018       35.65626
O         75.35461       77.69444       37.20496
H         75.83522       76.92496       36.81904
H         75.61313       77.67854       38.15355
O         72.52193       78.02383       38.29743
H         71.74430       78.61022       38.47106
H         73.09900       78.14620       39.09062
O         71.11187       75.08971       35.17987
H         70.80039       75.22616       34.25230
H         70.30218       74.85533       35.69533
O         72.30967       77.39964       33.12291
H         71.49237       76.92830       32.82659
H         72.76778       77.65057       32.28232
O         72.96103       79.86127       35.77410
H         73.37283       80.41661       36.48247
H         72.09348       80.30179       35.59330

Ca 1.70



