%chk=loop2.cluster208.chk
%nprocshared=48
%mem=10GB
%nosave
#b3lyp/svp scf=(tight,noincore) Test 
#IOP(5/87=12) Density=Current Pop=(MK,readradii) iop(6/33=2) iop(6/42=6)

loop2.cluster208 

   -2  1 
C         63.88617       59.31831       12.88190
C         62.98078       59.90423       13.90605
O         63.44518       60.46575       14.88886
H         64.91703       59.25296       13.28119
H         63.53588       58.28138       12.68058
H         63.84286       59.90350       11.94219
N         61.64955       59.69173       13.78924
C         60.71508       60.01642       14.84247
C         61.15880       59.34511       16.15610
O         61.36476       58.13971       16.18002
C         59.32947       59.51150       14.40990
C         58.30607       59.84658       15.40678
O         57.19600       59.40481       15.31502
O         58.60386       60.61301       16.43076
H         61.30268       59.19539       12.95248
H         60.67160       61.12335       14.96765
H         59.36550       58.40779       14.29708
H         59.01528       59.97265       13.44780
N         61.33523       60.09675       17.28136
C         61.79133       59.56841       18.56643
C         60.63576       59.03995       19.40585
O         60.86339       58.25487       20.31552
C         62.56579       60.66649       19.30763
H         61.09850       61.08676       17.22970
H         62.48088       58.71650       18.37981
H         63.44919       60.96740       18.70234
H         61.92404       61.56470       19.44434
H         62.91188       60.32767       20.30472
N         59.36196       59.43157       19.13918
C         58.17751       58.81791       19.71331
C         57.83007       57.54143       18.94271
O         57.11104       56.70154       19.46691
C         56.95264       59.76132       19.57045
C         57.16897       61.16499       20.11303
O         58.04497       62.02516       19.53692
O         56.59327       61.50509       21.13168
H         59.22716       60.17395       18.46787
H         58.35440       58.61963       20.79513
H         56.10478       59.28288       20.11074
H         56.67028       59.82566       18.50868
N         58.22282       57.39111       17.63829
C         57.83607       56.26483       16.80791
C         56.35914       56.21801       16.45060
O         55.93260       55.19781       15.92956
H         58.83259       58.09508       17.21188
H         58.14340       55.32835       17.31734
H         58.38264       56.31436       15.83885
N         55.52281       57.28626       16.64182
C         54.10116       57.22329       16.29603
C         53.82339       57.61267       14.83277
O         52.67943       57.53173       14.40746
C         53.28103       58.03689       17.34180
C         53.22109       59.53244       17.13223
N         52.66911       60.33314       18.07379
O         53.63587       60.02401       16.09982
H         55.89321       58.16187       17.03309
H         53.77205       56.17113       16.43566
H         53.71917       57.83154       18.34464
H         52.22874       57.68606       17.35678
H         52.32126       59.93945       18.95931
H         52.60307       61.35139       17.91940
N         54.82337       58.08557       14.02507
C         54.64389       58.52065       12.65158
C         54.78126       60.02541       12.43531
O         54.54427       60.44622       11.31241
H         55.76469       58.11775       14.38537
H         53.63962       58.23188       12.28520
H         55.39611       58.00327       12.01465
N         55.10502       60.90777       13.43895
C         55.08673       62.36099       13.22655
C         56.43639       63.00561       13.52211
O         57.21988       62.46488       14.28841
C         53.92657       62.99272       14.03590
C         53.67873       64.45326       13.65679
O         52.74017       62.28931       13.76857
H         55.30859       60.55856       14.38030
H         54.86687       62.57066       12.15998
H         54.14450       62.95929       15.12557
H         52.69133       61.53810       14.41359
H         52.79301       64.83943       14.20239
H         54.54070       65.09773       13.91163
H         53.47939       64.52394       12.56586
N         56.76864       64.17765       12.90519
C         58.07351       64.82063       13.00833
C         57.96733       66.13107       13.77969
O         57.18721       67.00325       13.42090
C         58.63782       65.03079       11.56821
C         58.97878       63.67978       10.88055
C         59.84346       65.98239       11.52322
C         60.23070       62.97288       11.42273
H         56.07597       64.61677       12.28055
H         58.78796       64.18042       13.56116
H         57.83989       65.52087       10.96717
H         59.15481       63.86584        9.79947
H         58.10954       62.99364       10.96417
H         60.65221       65.61646       12.17547
H         60.23040       66.07662       10.48837
H         59.54951       66.99728       11.85868
H         60.14952       62.75788       12.50562
H         60.37148       62.00919       10.89162
H         61.13921       63.58518       11.23413
N         58.81628       66.34316       14.82675
C         58.98917       67.59599       15.53894
C         60.13009       68.35064       14.91647
O         60.69032       67.88390       13.93760
C         59.40333       67.29873       16.99979
C         58.36406       66.55259       17.76255
O         58.65341       65.34875       18.28359
O         57.26772       67.05103       17.95479
H         59.51212       65.62649       15.01663
H         58.07387       68.22488       15.48694
H         59.60324       68.23595       17.55608
H         60.34756       66.70332       16.99202
N         60.54712       69.53381       15.42565
C         61.66492       70.26338       14.86647
C         63.00209       69.48826       14.98114
O         63.61825       69.30114       13.94662
C         61.66795       71.70677       15.40693
C         62.71557       72.55299       14.74087
C         62.72919       72.70361       13.34081
C         63.68954       73.19945       15.51417
C         63.72397       73.46296       12.72727
C         64.67683       73.96856       14.89516
C         64.69973       74.09255       13.50259
H         60.02209       69.94857       16.21400
H         61.45782       70.37222       13.77877
H         61.78077       71.72500       16.50564
H         60.67412       72.15780       15.18537
H         61.97895       72.22792       12.72239
H         63.68266       73.10614       16.59346
H         63.73770       73.55989       11.64954
H         65.42702       74.46386       15.49564
H         65.47150       74.67858       13.02409
N         63.51061       68.97867       16.16061
C         64.75080       68.19134       16.20491
C         64.76944       66.97425       15.28418
O         65.84336       66.49945       14.93635
C         64.78558       67.69452       17.65961
C         64.08266       68.80834       18.40328
C         62.91988       69.14762       17.46635
H         65.59201       68.87850       15.96952
H         64.12675       66.80095       17.76688
H         65.79933       67.42749       18.03121
H         63.78722       68.56952       19.44762
H         64.78300       69.67458       18.42114
H         62.07317       68.43795       17.57199
H         62.61094       70.17988       17.70180
N         63.60829       66.36241       14.93177
C         63.52412       65.18403       14.06735
C         63.68937       65.62554       12.61833
O         64.44631       65.01207       11.88104
C         62.18101       64.46173       14.35799
C         62.18954       63.97584       15.82724
C         60.90251       63.58660       16.49992
O         59.70387       63.54680       15.89549
O         60.94509       63.33815       17.69248
H         62.72697       66.75085       15.30503
H         64.31889       64.44447       14.31685
H         62.02157       63.59631       13.68150
H         61.38302       65.19444       14.19995
H         62.55813       64.79319       16.47403
H         62.90808       63.12968       15.91463
N         63.09249       66.77294       12.19079
C         63.36310       67.39217       10.91330
H         64.42775       67.26778       10.62832
H         62.67282       67.00934       10.13535
H         63.18746       68.48760       11.01421
H         62.55509       67.31500       12.86067
Ca        58.15709       62.79895       17.38016
O         55.79779       64.06263       18.76242
H         54.83568       64.24174       18.90679
H         56.15880       63.87506       19.66260
O         55.87500       64.89063       16.09388
H         56.48849       65.65713       16.00188
H         55.08177       65.27268       16.54510
O         55.68182       61.63769       17.31806
H         54.82284       61.92399       16.93745
H         56.02228       60.96876       16.67938

Ca 1.70



