%chk=loop2.cluster169.chk
%nprocshared=48
%mem=10GB
%nosave
#b3lyp/svp scf=(tight,noincore) Test 
#IOP(5/87=12) Density=Current Pop=(MK,readradii) iop(6/33=2) iop(6/42=6)

loop2.cluster169 

   -2  1 
C         85.47387       51.36836       60.36975
C         85.29648       51.90068       58.97700
O         84.53884       51.32367       58.20997
H         86.21202       51.97184       60.93926
H         84.50605       51.38678       60.91226
H         85.84598       50.32346       60.31883
N         85.98751       53.00432       58.57321
C         85.90298       53.53382       57.21785
C         84.48660       53.96531       56.88557
O         83.93503       54.82759       57.55118
C         86.89207       54.70239       57.04166
C         86.80410       55.33625       55.67926
O         86.49485       56.64249       55.56789
O         87.00762       54.67442       54.67397
H         86.61780       53.46550       59.24685
H         86.21930       52.73302       56.51268
H         87.92502       54.31789       57.19216
H         86.69142       55.47828       57.81061
N         83.86444       53.39589       55.81784
C         82.51581       53.72305       55.37791
C         81.72106       52.42266       55.32235
O         82.30725       51.41240       54.96168
C         82.61284       54.35136       53.98854
H         84.38518       52.69635       55.26847
H         82.05140       54.48031       56.03247
H         83.27948       55.24079       54.03530
H         83.03620       53.63288       53.25487
H         81.61241       54.68486       53.64272
N         80.39176       52.31880       55.61153
C         79.48022       53.42728       55.87438
C         79.78452       54.25374       57.11329
O         80.49551       53.80488       58.00332
C         78.00897       52.91964       55.94197
C         77.75724       51.83033       56.96719
O         78.18292       50.69899       56.78949
O         76.98900       52.08092       58.04261
H         79.99217       51.37566       55.51800
H         79.55701       54.11997       55.00907
H         77.70324       52.52194       54.95055
H         77.34502       53.78035       56.16862
N         79.24149       55.50532       57.21585
C         79.39936       56.35674       58.38272
C         80.81836       56.83381       58.59863
O         81.67264       56.57327       57.76811
H         78.65323       55.85678       56.44368
H         79.04104       55.79410       59.26657
H         78.77345       57.26767       58.25182
N         81.16447       57.56205       59.70058
C         80.24953       57.93102       60.77983
C         80.68314       57.31488       62.11233
O         80.04910       57.58010       63.12210
C         80.25795       59.46730       60.90652
C         79.81894       60.12596       59.62251
N         80.66976       60.91864       58.92870
O         78.68720       59.93709       59.20263
H         82.14878       57.87067       59.78250
H         79.20836       57.60202       60.58432
H         81.29088       59.79210       61.16612
H         79.58295       59.79918       61.72471
H         81.63085       61.08167       59.26333
H         80.36721       61.36190       58.04881
N         81.80030       56.52924       62.18892
C         82.40482       56.13269       63.44644
C         81.73612       55.02101       64.20908
O         82.29444       54.63991       65.23007
H         82.33604       56.31462       61.34168
H         82.50539       57.02494       64.10283
H         83.43008       55.77201       63.22033
N         80.55653       54.44823       63.82383
C         79.92321       53.41399       64.64078
C         79.65874       52.14628       63.87838
O         79.50343       52.17136       62.66794
C         78.62032       53.92219       65.28908
C         78.89498       55.09883       66.23322
O         77.65919       54.25594       64.31757
H         80.07641       54.77895       62.97375
H         80.59459       53.12015       65.47629
H         78.19011       53.10809       65.91448
H         77.95019       55.09034       63.86832
H         79.38882       55.93407       65.69353
H         77.94260       55.46550       66.66564
H         79.56013       54.76861       67.06099
N         79.52120       50.99346       64.58653
C         79.21846       49.70111       63.99317
C         77.78905       49.30679       64.33432
O         77.15858       49.92818       65.17350
C         80.24247       48.62010       64.48671
C         81.68686       48.88213       63.99205
C         80.27775       48.54511       66.03404
C         81.84802       48.83254       62.47432
H         79.60268       51.05044       65.60883
H         79.22941       49.77538       62.88714
H         79.91614       47.62553       64.10743
H         82.36432       48.10656       64.41726
H         82.02888       49.87395       64.35619
H         80.88274       47.68712       66.37621
H         80.75859       49.44443       66.47585
H         79.26032       48.44101       66.46338
H         81.59913       47.82347       62.10055
H         81.21265       49.58079       61.96484
H         82.90352       49.05305       62.21057
N         77.21246       48.27848       63.65360
C         75.82176       47.86405       63.83849
C         75.67333       46.39858       63.49731
O         76.14631       45.94867       62.46702
C         74.81451       48.74834       63.06771
C         75.34364       49.22883       61.75079
O         75.80947       50.35426       61.67603
O         75.54333       48.37762       60.74017
H         77.75968       47.82676       62.90934
H         75.54548       47.95713       64.91162
H         74.64451       49.65409       63.68429
H         73.82476       48.24277       62.97124
N         75.01437       45.59448       64.37523
C         74.87858       44.15867       64.20240
C         76.24795       43.49316       64.17128
O         77.02419       43.72320       65.08563
C         74.06130       43.59583       65.39486
C         73.95778       42.09650       65.31220
C         75.02933       41.28780       65.73715
C         72.81819       41.49905       64.76141
C         74.97072       39.90528       65.58288
C         72.76285       40.11169       64.60983
C         73.84097       39.31644       65.01311
H         74.58794       46.02562       65.20801
H         74.30330       43.95064       63.27615
H         73.04848       44.05646       65.36042
H         74.51150       43.87922       66.37286
H         75.91511       41.72930       66.17556
H         71.98934       42.11002       64.42637
H         75.80726       39.29393       65.89610
H         71.88938       39.65518       64.16693
H         73.80215       38.24449       64.88282
N         76.58317       42.57009       63.20881
C         77.78449       41.75911       63.30893
C         79.03827       42.49024       62.86543
O         80.08106       41.85242       62.78531
C         77.43752       40.56243       62.40849
C         76.59298       41.19010       61.31615
C         75.72875       42.17914       62.10343
H         77.93993       41.36009       64.33544
H         78.30237       39.95477       62.06420
H         76.75604       39.89164       62.98103
H         77.28646       41.75917       60.65873
H         76.01810       40.46979       60.69229
H         75.44816       43.02693       61.43923
H         74.82021       41.68337       62.50794
N         79.02979       43.81739       62.54417
C         80.21077       44.48128       62.01064
C         81.23942       44.84115       63.07850
O         82.29831       45.33050       62.71283
C         79.82115       45.72802       61.19442
C         78.91359       45.37112       60.00159
C         78.62805       46.58166       59.17458
O         77.37262       47.04205       59.20035
O         79.52746       47.22269       58.64911
H         78.15241       44.35032       62.60247
H         80.69817       43.79279       61.28634
H         80.74926       46.17506       60.78562
H         79.32471       46.47728       61.85168
H         77.93998       45.00078       60.39548
H         79.36402       44.58316       59.36954
N         81.01732       44.61488       64.40842
C         82.00822       44.92257       65.42455
H         82.91244       45.41968       65.01259
H         81.56622       45.58846       66.18868
H         82.32238       43.98355       65.92351
H         80.13186       44.19685       64.72345
Ca        76.81705       49.16868       59.06232
O         79.10763       50.29192       60.05897
H         80.00589       50.56412       59.74934
H         78.80082       51.03073       60.63897
O         75.28329       48.70026       56.83768
H         74.86472       49.20396       56.09689
H         75.24496       47.75070       56.56158

Ca 1.70



