%chk=loop2.cluster144.chk
%nprocshared=48
%mem=10GB
%nosave
#b3lyp/svp scf=(tight,noincore) Test 
#IOP(5/87=12) Density=Current Pop=(MK,readradii) iop(6/33=2) iop(6/42=6)

loop2.cluster144 

   -2  1 
C         81.59739       52.04880       58.68819
C         81.27318       52.47894       57.28589
O         80.44248       51.84985       56.64549
H         82.37320       52.70230       59.14078
H         80.68332       52.10323       59.31525
H         81.97825       51.00593       58.68525
N         81.90777       53.55265       56.73465
C         81.64155       54.01553       55.37425
C         80.20645       54.50120       55.22460
O         79.55549       54.80559       56.21577
C         82.66646       55.11123       55.00656
C         82.44841       55.76107       53.67013
O         82.20599       57.08464       53.60498
O         82.50497       55.10429       52.64330
H         82.62075       54.04215       57.29708
H         81.78198       53.15216       54.68527
H         83.68285       54.65801       55.02015
H         82.63062       55.90382       55.78386
N         79.63804       54.52235       53.98274
C         78.22989       54.81395       53.73685
C         77.59956       53.58422       53.08117
O         78.35095       52.78505       52.53818
C         78.12412       56.04127       52.83389
H         80.21571       54.24711       53.17593
H         77.74804       55.03105       54.69776
H         78.63690       56.90173       53.31639
H         78.62057       55.84451       51.85913
H         77.06426       56.31431       52.65712
N         76.26768       53.27435       53.10864
C         75.16384       54.05127       53.67244
C         75.39811       54.54121       55.08822
O         75.67565       53.74085       55.96593
C         73.86904       53.19453       53.62976
C         73.91335       51.92212       54.45134
O         74.70304       51.02170       54.20441
O         73.01517       51.79121       55.44113
H         76.01623       52.38020       52.66002
H         74.99401       54.93805       53.02569
H         73.62597       52.92671       52.58111
H         73.03108       53.81267       54.02231
N         75.32458       55.87642       55.36909
C         75.52014       56.41285       56.70633
C         76.80654       57.21105       56.79138
O         77.52325       57.29599       55.80574
H         75.13028       56.54465       54.60670
H         75.56939       55.60195       57.46085
H         74.64724       57.05854       56.95320
N         77.18299       57.85484       57.93276
C         76.36752       57.90255       59.13563
C         77.25258       57.76919       60.36305
O         77.80516       58.75340       60.83861
C         75.55899       59.21023       59.10849
C         74.72575       59.48243       60.33406
N         74.14749       60.69496       60.48175
O         74.59065       58.63399       61.20417
H         78.04675       58.42065       57.90938
H         75.63688       57.06858       59.16730
H         74.88274       59.20165       58.22272
H         76.27237       60.04981       58.98319
H         74.28244       61.42460       59.76561
H         73.59923       60.91447       61.32521
N         77.45111       56.53746       60.89860
C         78.26832       56.28453       62.07151
C         77.71667       55.14404       62.91251
O         78.44259       54.65322       63.76375
H         77.07898       55.72810       60.38150
H         78.40611       57.18717       62.70974
H         79.26830       55.97436       61.70241
N         76.45891       54.63931       62.70105
C         75.93154       53.49978       63.44451
C         75.84781       52.28178       62.56857
O         76.04940       52.35990       61.36797
C         74.50611       53.79155       63.98249
C         74.52052       54.82407       65.09439
O         73.66047       54.23719       62.94818
H         75.85335       55.04878       61.98018
H         76.61436       53.22003       64.27495
H         74.07180       52.87343       64.44373
H         73.33695       53.43570       62.45850
H         75.15292       54.45400       65.92908
H         74.91211       55.79312       64.72539
H         73.48443       54.96273       65.47148
N         75.54943       51.09247       63.16180
C         75.36746       49.86154       62.41588
C         73.97848       49.31301       62.68037
O         73.30381       49.73479       63.60501
C         76.48456       48.83378       62.77799
C         77.88155       49.36498       62.36473
C         76.50379       48.52013       64.28594
C         78.11082       49.38330       60.85404
H         75.44382       51.06279       64.18398
H         75.39876       50.07497       61.33030
H         76.28930       47.87331       62.25426
H         78.68325       48.72502       62.79423
H         78.01620       50.38778       62.77469
H         75.51577       48.16090       64.64043
H         77.24029       47.72356       64.48927
H         76.81330       49.40255       64.88307
H         79.06891       49.89479       60.63019
H         78.19488       48.34616       60.49367
H         77.30583       49.89332       60.29239
N         73.47920       48.39399       61.81643
C         72.13948       47.83263       61.92179
C         72.18289       46.38726       61.49952
O         72.82590       46.05579       60.51947
C         71.15355       48.61878       61.05558
C         71.61960       48.77568       59.64089
O         71.96085       49.99153       59.19653
O         71.66502       47.81962       58.88499
H         74.03889       48.16463       60.98657
H         71.75003       47.90545       62.96308
H         71.04539       49.62797       61.50983
H         70.14705       48.14047       61.07648
N         71.50086       45.46683       62.21781
C         71.53519       44.04831       61.90000
C         72.97049       43.51936       61.92312
O         73.61777       43.63291       62.95556
C         70.72630       43.31113       62.98349
C         70.84923       41.81603       62.89532
C         71.60258       41.12606       63.86107
C         70.22879       41.10428       61.86053
C         71.72717       39.73963       63.79504
C         70.34453       39.71204       61.80610
C         71.09226       39.03076       62.77303
H         70.93637       45.78982       63.01673
H         71.06035       43.88253       60.91029
H         69.65646       43.61273       62.96154
H         71.13604       43.64092       63.96412
H         72.10348       41.66627       64.65639
H         69.64874       41.62640       61.10972
H         72.31426       39.21667       64.53883
H         69.85320       39.16105       61.01619
H         71.18104       37.95410       62.73054
N         73.52063       42.86232       60.84988
C         74.78145       42.14714       60.93519
C         75.98702       43.02960       60.68499
O         77.09469       42.51227       60.64725
C         74.63440       41.13401       59.79158
C         73.90485       41.95198       58.73414
C         72.85661       42.68361       59.57255
H         74.89669       41.60278       61.89839
H         75.58075       40.65735       59.45586
H         73.93612       40.33320       60.12372
H         74.62964       42.69906       58.33543
H         73.48955       41.37990       57.87776
H         72.59178       43.64620       59.07963
H         71.95451       42.05521       59.71949
N         75.84511       44.35851       60.43081
C         76.96234       45.17139       59.98043
C         77.97596       45.43917       61.08786
O         79.02207       45.99914       60.79124
C         76.44491       46.47940       59.34435
C         75.47717       46.20856       58.17334
C         74.98156       47.46733       57.52351
O         75.38514       48.67944       57.95246
O         74.19613       47.38960       56.59527
H         74.91120       44.77606       60.45766
H         77.47900       44.61576       59.16578
H         77.30873       47.04645       58.94011
H         75.92897       47.09000       60.11224
H         74.58278       45.65299       58.51921
H         75.99021       45.58893       57.40713
N         77.75423       45.04559       62.37975
C         78.72475       45.24411       63.43848
H         79.62668       45.79474       63.09922
H         78.26177       45.80837       64.26786
H         79.03839       44.25723       63.83556
H         76.87532       44.57536       62.63586
Ca        72.53227       50.30383       57.05244
O         74.31925       52.15660       58.25477
H         75.09700       52.30428       58.84496
H         74.71512       52.07735       57.35363
O         72.19485       48.39115       54.76401
H         71.67043       48.43339       53.92650
H         72.14675       47.44093       55.03757

Ca 1.70



