%chk=loop3.cluster16.chk
%nprocshared=48
%mem=10GB
%nosave
#b3lyp/svp scf=(tight,noincore) Test 
#IOP(5/87=12) Density=Current Pop=(MK,readradii) iop(6/33=2) iop(6/42=6)

loop3.cluster16 

   0  1 
C         57.89071       48.18730       43.29818
C         57.30096       47.95643       44.64856
O         57.90129       47.27521       45.46370
H         58.88891       47.70970       43.21641
H         57.21196       47.73954       42.54179
H         57.98275       49.27733       43.11248
N         56.09730       48.50030       44.95375
C         55.41644       48.22514       46.20329
C         54.66572       46.91177       46.05466
O         53.80500       46.80312       45.19100
C         54.50724       49.41316       46.52658
C         53.77545       49.28780       47.80976
O         53.05632       50.19652       48.15969
O         53.89904       48.20018       48.58165
H         55.62700       49.09005       44.24925
H         56.16067       48.16499       47.03303
H         53.76217       49.55738       45.71640
H         55.14078       50.32474       46.60348
N         54.99464       45.84897       46.84095
C         54.50246       44.49669       46.59976
C         53.23139       44.16410       47.36935
O         52.59062       43.18085       47.02723
C         55.60915       43.47165       46.92998
C         56.95114       43.75647       46.22173
C         56.84535       43.75380       44.69227
C         58.20470       44.05783       44.04854
N         58.16606       43.80627       42.60958
H         55.77159       45.97246       47.49407
H         54.24571       44.40330       45.52173
H         55.26052       42.44874       46.67169
H         55.80178       43.50166       48.02646
H         57.67308       42.96958       46.53366
H         57.36322       44.72736       46.55610
H         56.12423       44.51930       44.33336
H         56.49207       42.74859       44.38144
H         58.98776       43.41299       44.50053
H         58.48241       45.11834       44.23724
H         59.11845       43.96730       42.20994
H         57.89905       42.80924       42.43761
H         57.48080       44.44220       42.14138
N         52.79578       44.94186       48.40472
C         51.49794       44.73662       49.05996
C         50.57214       45.93078       48.83561
O         49.43842       45.88173       49.29491
C         51.64441       44.42330       50.57368
C         52.26380       45.50454       51.39813
O         52.41748       45.34197       52.59492
O         52.64984       46.64496       50.82345
H         53.38261       45.72677       48.70915
H         50.98513       43.85448       48.62176
H         52.26678       43.51220       50.69912
H         50.63852       44.22217       50.99975
N         50.96617       47.02906       48.11821
C         50.08269       48.15844       47.87329
C         49.76327       48.99711       49.10436
O         48.91556       49.87138       49.00497
H         51.89420       47.05227       47.67800
H         49.14551       47.76961       47.42117
H         50.55639       48.84036       47.13435
N         50.42024       48.81665       50.28888
C         50.11792       49.57763       51.50068
C         50.41180       51.07512       51.34477
O         49.99863       51.85701       52.18833
C         50.86331       48.98772       52.73582
C         52.24536       49.55998       52.97218
N         52.52394       50.20373       54.13284
O         53.10750       49.45508       52.11740
H         51.12825       48.10187       50.33476
H         49.03246       49.41591       51.67529
H         50.91889       47.87866       52.65666
H         50.25708       49.20413       53.63759
H         51.80614       50.29576       54.86721
H         53.45606       50.61067       54.29942
N         51.16075       51.52123       50.29255
C         51.47860       52.91243       50.01728
C         52.97436       53.19682       49.95301
O         53.33166       54.33064       49.66196
H         51.51431       50.83656       49.63240
H         51.02487       53.58750       50.77291
H         51.04696       53.15808       49.02519
N         53.90629       52.25050       50.28111
C         55.32727       52.55207       50.42449
C         56.20648       51.45683       49.84062
O         55.92958       50.28466       50.06287
C         55.66187       52.67316       51.92438
C         54.97917       53.85899       52.56777
C         55.69912       55.04423       52.79347
C         53.62612       53.79461       52.94519
C         55.07333       56.15103       53.37354
C         53.00405       54.90142       53.53046
C         53.72607       56.08516       53.74244
O         53.13407       57.16217       54.29742
H         53.58979       51.32275       50.58532
H         55.60184       53.52805       49.96040
H         56.76269       52.81116       52.00785
H         55.40433       51.74459       52.47761
H         56.74061       55.11528       52.50508
H         53.05564       52.88762       52.79049
H         55.63568       57.06246       53.53316
H         51.96199       54.83968       53.81789
H         52.20054       57.15450       54.55281
N         57.38374       51.77768       49.22322
C         58.39936       50.77532       48.91172
C         59.32189       50.65964       50.11904
O         59.76270       51.67984       50.63625
C         59.26760       51.15565       47.67106
C         58.42734       51.66374       46.47772
C         60.11236       49.92784       47.24273
C         59.29916       52.24681       45.35752
H         57.65275       52.77302       49.17011
H         57.90484       49.80280       48.67624
H         59.94026       51.98993       47.97203
H         57.77756       52.49585       46.81782
H         57.77992       50.85239       46.08206
H         60.73659       49.55073       48.07317
H         59.44503       49.10090       46.91101
H         60.80849       50.16158       46.41557
H         58.65042       52.65497       44.55664
H         59.92733       53.07488       45.75505
H         59.96004       51.48622       44.89753
N         59.70959       49.44377       50.57689
C         60.65420       49.23298       51.65673
C         61.86586       48.52033       51.10057
O         61.89785       48.21442       49.91649
C         60.01744       48.40960       52.79794
O         59.75014       47.09253       52.39411
H         59.40331       48.62547       50.06449
H         60.97466       50.20499       52.08775
H         59.10331       48.91397       53.18348
H         60.70848       48.35726       53.66398
H         58.77868       47.02987       52.22584
N         62.91577       48.22418       51.89532
C         64.09941       47.52289       51.41776
C         63.79045       46.09967       50.95526
O         64.22806       45.72336       49.87947
C         65.15012       47.52646       52.51825
H         62.87636       48.53006       52.88221
H         64.54326       48.07736       50.55820
H         66.05012       46.96589       52.19611
H         65.44171       48.58311       52.71307
H         64.74134       47.08898       53.45274
N         63.00583       45.27026       51.70498
C         62.62907       43.91932       51.26156
C         61.97758       43.93483       49.88867
O         62.14546       42.99422       49.12302
C         61.63795       43.30751       52.26346
H         62.61682       45.63023       52.58905
H         63.52893       43.26814       51.21494
H         62.12820       43.16528       53.24918
H         60.75954       43.97784       52.39634
H         61.27099       42.32026       51.90721
N         61.17304       44.96608       49.54214
C         60.46299       45.06574       48.27293
C         61.41379       45.39110       47.12982
O         61.32471       44.75930       46.08699
C         59.35763       46.12324       48.43060
C         58.34621       45.63010       49.48973
C         57.25796       46.59498       49.82931
O         55.99770       46.21444       49.76224
O         57.49347       47.67143       50.32669
H         61.03787       45.71588       50.23713
H         59.93517       44.11243       48.04144
H         58.82846       46.28392       47.47829
H         59.83160       47.07388       48.72050
H         58.85515       45.39344       50.44534
H         57.88275       44.68564       49.13024
N         62.39115       46.33002       47.28342
C         63.36186       46.64750       46.25496
H         64.35783       46.27682       46.57803
H         63.11196       46.19316       45.27418
H         63.42429       47.74951       46.12837
H         62.49948       46.79268       48.18867
Ca        54.66130       47.47031       50.99726
O         54.22530       47.30728       54.02323
H         54.61910       47.08061       54.89954
H         54.25806       46.45469       53.53579
O         56.43880       49.22653       52.81993
H         56.98752       49.98174       53.14616
H         56.14745       48.77218       53.64680
O         55.37566       45.02477       52.01488
H         56.20269       44.97167       52.55352
H         55.42207       44.28206       51.36500

Ca 1.70



