%chk=loop3.cluster127.chk
%nprocshared=48
%mem=10GB
%nosave
#b3lyp/svp scf=(tight,noincore) Test 
#IOP(5/87=12) Density=Current Pop=(MK,readradii) iop(6/33=2) iop(6/42=6)

loop3.cluster127 

   0  1 
C        103.89822      -25.89433       83.73488
C        102.52839      -26.44981       83.48361
O        101.61551      -25.69509       83.17988
H        104.59395      -26.29392       82.96558
H        103.89796      -24.78584       83.67069
H        104.25573      -26.20254       84.73898
N        102.31585      -27.78838       83.60411
C        101.05791      -28.43193       83.25527
C        100.21983      -28.71976       84.51239
O        100.73044      -29.25735       85.48317
C        101.37573      -29.67679       82.40539
C        100.11440      -30.31461       81.94406
O         99.78095      -30.41191       80.66217
O         99.32461      -30.71354       82.75597
H        103.09771      -28.38496       83.91714
H        100.46225      -27.76004       82.59543
H        101.96275      -30.40884       83.00122
H        101.97139      -29.37541       81.51678
N         98.91086      -28.32263       84.54349
C         98.07320      -28.30666       85.75222
C         97.49357      -29.65563       86.19085
O         96.89075      -29.71812       87.25552
C         96.91173      -27.30106       85.53430
C         97.38186      -25.88910       85.11364
C         98.38313      -25.25405       86.08847
C         98.79343      -23.86507       85.58683
N         99.56819      -23.14576       86.59497
H         98.53835      -27.88385       83.69332
H         98.69118      -27.93831       86.59420
H         96.31060      -27.21838       86.46464
H         96.23857      -27.67827       84.72843
H         96.48204      -25.23988       85.04447
H         97.83740      -25.90815       84.10232
H         99.30957      -25.86477       86.17200
H         97.90619      -25.18422       87.08827
H         97.88627      -23.26942       85.34854
H         99.39448      -23.97860       84.65486
H         99.87257      -22.22896       86.19526
H         98.96326      -22.96178       87.42871
H        100.41019      -23.69523       86.88148
N         97.56992      -30.75044       85.39373
C         96.96689      -32.04766       85.70239
C         97.92047      -33.24430       85.49291
O         97.61084      -34.32338       85.97699
C         95.70485      -32.21551       84.82885
C         95.99278      -31.88832       83.38845
O         95.30264      -30.91744       82.76209
O         96.91992      -32.42523       82.81638
H         97.96924      -30.61658       84.47553
H         96.64542      -32.08311       86.76755
H         94.92349      -31.50418       85.17343
H         95.29889      -33.24549       84.93003
N         99.07854      -33.13577       84.77100
C        100.02160      -34.22767       84.58512
C         99.52336      -35.41643       83.78504
O        100.21705      -36.42553       83.78527
H         99.34287      -32.24148       84.37784
H        100.33893      -34.57042       85.59191
H        100.92609      -33.84972       84.05819
N         98.33868      -35.40921       83.09767
C         97.83287      -36.62295       82.47178
C         98.64257      -37.03679       81.26249
O         99.23531      -36.18775       80.61191
C         96.31035      -36.59052       82.17529
C         95.85246      -35.95469       80.87707
N         95.71149      -34.62053       80.75169
O         95.52765      -36.67602       79.94556
H         97.75592      -34.57134       83.09725
H         97.93364      -37.40943       83.25358
H         95.75071      -36.17011       83.04032
H         96.00619      -37.65497       82.09829
H         95.90739      -34.00145       81.53597
H         95.34281      -34.22074       79.87758
N         98.76128      -38.34103       80.91865
C         99.52270      -38.76594       79.76117
C         98.86538      -39.87241       78.98582
O         99.47289      -40.34183       78.04021
H         98.36178      -39.05277       81.55328
H        100.48713      -39.18245       80.11624
H         99.74219      -37.92293       79.06515
N         97.63834      -40.37094       79.33954
C         97.11919      -41.56754       78.71023
C         96.11269      -41.16451       77.65967
O         95.10321      -40.55901       77.98121
C         96.58617      -42.53494       79.78323
C         96.29221      -43.86508       79.15451
C         94.98022      -44.34879       79.08681
C         97.34259      -44.61984       78.60321
C         94.71735      -45.56173       78.44478
C         97.07888      -45.82725       77.96384
C         95.76276      -46.29889       77.87348
O         95.49498      -47.45454       77.23550
H         97.07353      -39.93061       80.07377
H         97.95383      -42.08472       78.19976
H         95.68902      -42.09023       80.26824
H         97.35308      -42.69081       80.57560
H         94.16367      -43.77766       79.51116
H         98.36534      -44.26541       78.66054
H         93.69975      -45.92201       78.37992
H         97.89685      -46.38950       77.53150
H         96.19537      -47.96927       76.80949
N         96.41097      -41.39862       76.34685
C         95.66461      -40.85295       75.22286
C         94.27613      -41.44646       75.03862
O         93.42951      -41.38432       75.92036
C         95.71318      -39.29536       75.18924
C         94.69735      -38.72347       74.16271
C         97.15729      -38.86113       74.85812
C         94.78180      -37.20942       73.98813
H         97.27539      -41.91224       76.12399
H         96.22975      -41.15307       74.31434
H         95.43241      -38.87969       76.17930
H         93.67795      -38.95337       74.54326
H         94.81232      -39.20239       73.16494
H         97.43446      -39.19951       73.83405
H         97.26884      -37.76027       74.90555
H         97.87729      -39.30039       75.57958
H         95.69215      -36.94426       73.40954
H         93.89712      -36.85154       73.42329
H         94.79775      -36.69909       74.97248
N         93.98765      -41.98680       73.82120
C         92.68094      -42.46564       73.39299
C         92.75602      -43.31344       72.10903
O         91.88115      -44.14711       71.92604
C         91.71474      -41.28088       73.18914
O         92.27315      -40.35804       72.28834
H         94.75523      -42.00639       73.15104
H         92.28381      -43.14326       74.18041
H         91.52223      -40.79126       74.17032
H         90.74125      -41.64003       72.79028
H         91.95031      -39.45588       72.55082
N         93.72380      -43.12061       71.15052
C         93.82481      -43.88070       69.91224
C         92.50229      -44.04939       69.17054
O         92.13412      -45.18129       68.88684
C         94.56313      -45.20710       70.16201
H         94.40376      -42.36030       71.24103
H         94.48944      -43.31841       69.21965
H         95.59763      -44.99398       70.51140
H         94.04894      -45.83097       70.92101
H         94.65166      -45.78295       69.21365
N         91.74586      -42.99426       68.74064
C         91.97474      -41.58610       69.05820
C         92.40831      -40.82153       67.83034
O         91.89894      -41.11910       66.75866
C         90.65691      -40.98444       69.54763
H         90.92966      -43.21304       68.14704
H         92.71318      -41.47113       69.84885
H         89.87758      -41.08271       68.75939
H         90.30300      -41.51359       70.45380
H         90.78607      -39.90556       69.77998
N         93.31823      -39.80044       67.85582
C         93.99721      -39.23935       69.02903
C         95.47625      -39.56633       68.91774
O         96.04493      -40.07983       69.87287
C         93.71536      -37.72063       69.08829
C         94.40395      -37.01481       70.26743
C         94.14130      -35.53375       70.22981
O         92.88186      -35.06428       70.31820
O         95.07079      -34.75020       70.11475
H         93.53861      -39.36576       66.94772
H         93.63424      -39.64547       69.99124
H         92.61486      -37.57535       69.19099
H         94.04656      -37.24531       68.14180
H         95.50085      -37.18252       70.21844
H         94.02759      -37.43078       71.22334
N         96.14977      -39.36860       67.74854
C         97.51206      -39.81837       67.57118
H         98.18943      -39.29307       68.27407
H         97.56593      -40.91580       67.74592
H         97.83934      -39.62210       66.52766
H         95.67108      -38.94741       66.94005
Ca        97.62620      -31.08966       80.52067
O         97.40252      -28.47345       81.53713
H         98.12564      -27.93392       81.12993
H         96.60112      -27.89546       81.49932
O         95.31348      -29.47995       79.76783
H         94.37889      -29.79716       79.83661
H         95.32591      -28.88715       78.97564
O         99.21537      -33.07752       79.82004
H         98.99010      -33.25371       78.87431
H         99.19596      -33.95605       80.25665
O         95.95719      -32.11321       78.74150
H         96.22557      -32.55976       77.90237
H         94.98037      -31.97737       78.67339
O         98.32307      -29.46300       78.54683
H         99.15553      -29.95842       78.34120
H         98.30315      -28.71476       77.90626

Ca 1.70



