%chk=loop2.cluster2.chk
%nprocshared=48
%mem=10GB
%nosave
#b3lyp/svp scf=(tight,noincore) Test 
#IOP(5/87=12) Density=Current Pop=(MK,readradii) iop(6/33=2) iop(6/42=6)

loop2.cluster2 

   -2  1 
C         59.60528       53.92485       17.05714
C         60.57759       53.85137       15.91688
O         61.75505       54.11317       16.11112
H         58.59415       53.58115       16.74643
H         59.95649       53.23573       17.85535
H         59.53210       54.95519       17.45360
N         60.15163       53.43149       14.69849
C         61.07021       52.96398       13.67069
C         61.48562       54.01699       12.66080
O         60.69084       54.85756       12.26622
C         60.40777       51.79146       12.96589
C         61.17556       51.26810       11.81057
O         62.38565       50.66534       11.93840
O         60.63581       51.31021       10.71888
H         59.15317       53.18454       14.60500
H         61.98316       52.55423       14.14416
H         59.42640       52.13843       12.57534
H         60.21100       50.96613       13.67522
N         62.74845       53.94362       12.15128
C         63.32338       54.85293       11.18249
C         64.00781       54.11511       10.00367
O         64.42988       54.78938        9.07545
C         64.31362       55.73856       11.95374
H         63.35411       53.20940       12.50533
H         62.53398       55.51286       10.76556
H         64.81101       56.48011       11.29882
H         63.75713       56.29225       12.74544
H         65.08519       55.12121       12.46559
N         64.19077       52.75060        9.98604
C         64.85966       52.01848        8.89762
C         64.11700       50.73503        8.44469
O         64.60489       50.04845        7.55821
C         66.30791       51.68092        9.32970
C         66.44879       51.13569       10.72959
O         65.79364       50.18207       11.09670
O         67.30209       51.71809       11.59238
H         63.93838       52.20376       10.81231
H         64.93755       52.64947        7.98707
H         66.90666       52.61489        9.29778
H         66.75619       50.97785        8.59516
N         62.93829       50.36178        9.01024
C         62.17608       49.15863        8.66934
C         62.88580       47.85417        8.96526
O         62.38007       46.80986        8.57297
H         62.54735       50.98820        9.68456
H         61.92646       49.19187        7.59005
H         61.21950       49.14536        9.24060
N         64.07550       47.82850        9.62532
C         64.89231       46.63137        9.73306
C         64.28615       45.51141       10.59804
O         64.88838       44.45207       10.68252
C         66.32756       47.00645       10.18120
C         66.48131       47.37396       11.62784
N         67.71136       47.42865       12.17227
O         65.50658       47.59198       12.32353
H         64.45989       48.70720        9.97020
H         65.01086       46.23948        8.69983
H         66.73021       47.83954        9.55842
H         66.96901       46.12057       10.00568
H         68.55256       47.26323       11.60212
H         67.80808       47.58227       13.17853
N         63.10055       45.67777       11.26057
C         62.45035       44.61434       12.02227
C         62.77163       44.64053       13.50232
O         62.24811       43.80325       14.23038
H         62.60172       46.56588       11.18550
H         62.69892       43.62083       11.59216
H         61.35265       44.74422       11.91753
N         63.65729       45.53453       14.01944
C         64.08633       45.55049       15.40758
C         64.14434       46.97445       15.96110
O         64.09399       47.92589       15.18805
C         65.49610       44.88993       15.48057
C         65.42130       43.41363       15.07271
O         66.41735       45.51554       14.61671
H         64.12327       46.17418       13.37887
H         63.38046       44.96868       16.04337
H         65.87751       44.92922       16.52309
H         66.38245       46.49256       14.77089
H         65.16154       43.31295       13.99589
H         66.40614       42.92614       15.22876
H         64.65940       42.87903       15.67758
N         64.35690       47.19285       17.28965
C         64.67498       48.50843       17.83916
C         66.16545       48.55074       18.01920
O         66.72392       47.71284       18.72012
C         63.91680       48.79691       19.16301
C         62.42784       49.05992       18.84199
C         64.52282       50.01450       19.91312
C         61.54173       49.06368       20.08420
H         64.43569       46.37201       17.91470
H         64.40730       49.31862       17.12482
H         64.02486       47.90494       19.81922
H         62.03783       48.26886       18.16755
H         62.33559       50.03546       18.31024
H         64.46077       50.93675       19.29553
H         64.01890       50.19546       20.88205
H         65.58930       49.83972       20.16816
H         61.85490       49.82840       20.82106
H         60.49647       49.28668       19.78666
H         61.57459       48.06049       20.55900
N         66.88084       49.51493       17.38795
C         68.32001       49.58921       17.45163
C         68.73592       50.40197       18.64718
O         67.92706       51.13289       19.19100
C         68.88444       50.24785       16.17669
C         68.44304       49.56918       14.92003
O         67.14240       49.56756       14.56086
O         69.27633       49.06048       14.19042
H         66.38199       50.21828       16.83521
H         68.72951       48.55825       17.53536
H         69.98953       50.20225       16.21784
H         68.56986       51.31249       16.10682
N         70.00766       50.32690       19.10357
C         70.51955       51.13734       20.20089
C         70.41297       52.64288       19.92450
O         69.84172       53.31897       20.76795
C         71.94886       50.67126       20.52758
C         72.63783       51.44300       21.62311
C         73.88711       52.03265       21.36982
C         72.06995       51.55296       22.90520
C         74.56349       52.71320       22.38324
C         72.74780       52.24499       23.91445
C         73.99528       52.82001       23.65458
H         70.63590       49.64019       18.65687
H         69.90614       50.93196       21.10975
H         72.56212       50.69712       19.60603
H         71.88926       49.60705       20.84537
H         74.34351       51.95012       20.39097
H         71.11005       51.10330       23.12440
H         75.53191       53.15214       22.18265
H         72.30993       52.32915       24.90057
H         74.52388       53.34538       24.43879
N         70.90532       53.26762       18.80032
C         70.75460       54.70266       18.60341
C         69.30695       55.10054       18.34184
O         68.97414       56.26879       18.48343
C         71.71489       54.99237       17.44623
C         71.68196       53.70329       16.63849
C         71.61643       52.61929       17.72093
H         71.09925       55.25767       19.50152
H         71.52221       55.92943       16.88021
H         72.73725       55.05045       17.88104
H         70.72374       53.70085       16.07305
H         72.51882       53.57242       15.91673
H         71.08647       51.74858       17.30135
H         72.62386       52.33246       18.07831
N         68.38842       54.17075       17.97633
C         66.96640       54.45387       17.84136
C         66.29294       54.54891       19.20704
O         65.35070       55.31242       19.36468
C         66.37760       53.32803       16.99261
C         64.92949       53.51829       16.60180
C         64.67733       52.64413       15.43129
O         64.45990       53.17753       14.37165
O         64.84346       51.31610       15.44540
H         68.71468       53.21707       17.76297
H         66.81596       55.39139       17.25742
H         66.49007       52.34627       17.48598
H         66.98269       53.32901       16.05387
H         64.78158       54.56415       16.24624
H         64.22304       53.32679       17.43570
N         66.73782       53.78439       20.24277
C         66.14322       53.79094       21.55901
H         65.09205       53.44003       21.50756
H         66.70974       53.09209       22.21576
H         66.19680       54.80574       22.00266
H         67.54239       53.17784       20.09841
Ca        63.94764       50.48134       13.57204
O         61.93849       49.98129       15.32195
H         62.40025       50.83298       15.51338
H         61.01712       50.14368       15.63258
O         62.24622       48.04130       13.13156
H         62.11462       48.47765       12.26063
H         61.49574       47.40218       13.16804

Ca 1.70



