%chk=loop2.cluster1.chk
%nprocshared=48
%mem=10GB
%nosave
#b3lyp/svp scf=(tight,noincore) Test 
#IOP(5/87=12) Density=Current Pop=(MK,readradii) iop(6/33=2) iop(6/42=6)

loop2.cluster1 

   -2  1 
C         38.99844       44.39993        2.73842
C         37.65708       44.85465        3.22513
O         37.57143       45.98899        3.67261
H         39.70967       44.46675        3.58521
H         39.05121       43.37895        2.33695
H         39.31943       45.08585        1.92905
N         36.53348       44.09212        3.17792
C         36.41283       42.72434        2.67353
C         35.77484       41.84401        3.73281
O         34.79981       42.26247        4.34333
C         35.69713       42.68554        1.29866
C         34.49235       43.53200        1.09808
O         34.01274       43.59854       -0.01648
O         34.03980       44.33240        2.07041
H         35.68193       44.53740        3.53703
H         37.37190       42.25272        2.43194
H         35.44168       41.63493        1.02960
H         36.41529       43.06608        0.54440
N         36.30417       40.59706        3.99765
C         35.78453       39.60346        4.95778
C         34.53303       38.85883        4.47028
O         34.39863       37.66684        4.70685
C         35.67988       40.16414        6.37363
H         37.14878       40.32178        3.47555
H         36.55063       38.79759        5.00568
H         34.97109       41.01111        6.42900
H         35.33987       39.37346        7.07302
H         36.68470       40.51609        6.69470
N         33.65212       39.49435        3.67604
C         32.60041       38.89681        2.86602
C         32.50649       39.76717        1.62913
O         32.51953       40.97042        1.79009
C         31.27089       38.79612        3.64508
C         30.86786       39.99938        4.45574
O         31.50567       41.03882        4.41173
O         29.82522       39.89572        5.30172
H         33.82515       40.47199        3.51843
H         32.87385       37.87307        2.53327
H         31.38505       37.96623        4.36911
H         30.44388       38.52760        2.94726
N         32.56648       39.23834        0.37271
C         32.64280       40.04552       -0.84618
C         31.34976       40.78086       -1.17692
O         30.71760       40.44701       -2.16823
H         32.62356       38.21364        0.27423
H         32.85089       39.34648       -1.68709
H         33.50339       40.74823       -0.79209
N         30.89660       41.79264       -0.38469
C         29.64508       42.49953       -0.55928
C         29.87842       44.00770       -0.42641
O         28.91972       44.75628       -0.30441
C         28.66617       41.97204        0.51943
C         28.86548       42.50105        1.91906
N         27.79202       42.78239        2.69328
O         29.98691       42.66346        2.36158
H         31.44335       42.09248        0.40594
H         29.19043       42.25131       -1.54093
H         28.73273       40.86232        0.54725
H         27.63207       42.22679        0.21316
H         26.83876       42.59524        2.35375
H         27.91019       43.16449        3.63970
N         31.14717       44.51535       -0.42567
C         31.44659       45.91670       -0.23834
C         31.56961       46.31072        1.24815
O         30.63663       45.74656        2.12671
H         31.91883       43.90251       -0.68539
H         30.69863       46.51589       -0.78418
H         32.45580       46.11508       -0.67094
N         31.84133       47.72927        1.54939
C         31.64190       48.77784        0.51796
C         32.70777       49.85872        0.65062
O         32.71322       50.78556       -0.14991
C         30.19814       49.37144        0.57055
C         29.94812       50.25295        1.82085
O         29.97186       50.10032       -0.61872
H         31.60029       48.00493        2.52992
H         31.80008       48.35474       -0.48997
H         29.47213       48.52817        0.58994
H         29.39999       50.89146       -0.43691
H         30.59599       51.15530        1.79475
H         28.89212       50.60171        1.83511
H         30.13154       49.70302        2.76349
N         33.61441       49.82555        1.67788
C         34.53817       50.90112        2.00439
C         33.77122       52.22147        2.06247
O         33.93510       53.03867        1.16982
C         35.81210       50.97514        1.11207
C         36.41924       49.56688        0.88968
C         36.82858       51.90913        1.82046
C         37.76233       49.59511        0.15611
H         33.59336       49.04197        2.34322
H         34.95867       50.65289        2.99587
H         35.56110       51.39455        0.11322
H         35.70122       48.98215        0.27470
H         36.56401       49.03568        1.85622
H         37.72523       52.08879        1.19658
H         36.38685       52.90296        2.03775
H         37.15406       51.46289        2.78785
H         37.68975       50.20220       -0.77056
H         38.55291       50.01743        0.81307
H         38.06841       48.56206       -0.10740
N         32.85816       52.49266        3.03767
C         32.64202       51.67180        4.22438
C         33.90308       51.55022        5.07201
O         34.16252       50.47349        5.58654
C         31.46510       52.20897        5.07373
C         31.52537       53.65943        5.50472
O         30.51723       54.16712        6.23630
O         32.44701       54.38792        5.17744
H         32.31322       53.36317        2.93617
H         32.34091       50.64345        3.91830
H         31.37177       51.57574        5.98280
H         30.53519       52.08740        4.47861
N         34.78497       52.58861        5.16713
C         36.05721       52.45426        5.87466
C         35.83118       52.27765        7.37785
O         34.76489       52.63858        7.84364
C         36.97695       53.66778        5.55795
C         36.57157       55.03173        6.09298
C         35.75372       55.89243        5.33515
C         37.10620       55.49777        7.30990
C         35.47400       57.18680        5.79082
C         36.82403       56.79399        7.75861
C         36.01119       57.63787        6.99857
H         34.58831       53.45610        4.66002
H         36.55316       51.56070        5.44863
H         37.08958       53.74682        4.45534
H         38.00689       53.47626        5.90312
H         35.35219       55.57503        4.38296
H         37.75620       54.86454        7.90004
H         34.85407       57.84782        5.19808
H         37.24871       57.15095        8.68877
H         35.80639       58.64560        7.34008
N         36.79900       51.76879        8.22130
C         38.08893       51.22688        7.83539
C         38.01515       49.88395        7.12700
O         36.93700       49.45142        6.73159
C         38.81625       51.06048        9.18106
C         38.12664       52.08855       10.06031
C         36.67334       51.88152        9.65633
H         38.65672       51.97034        7.24467
H         38.57626       50.06438        9.61620
H         39.92230       51.16117        9.11177
H         38.33101       51.96855       11.14434
H         38.44392       53.10573        9.73446
H         36.31173       50.90863       10.05997
H         36.03066       52.71777        9.99972
N         39.15185       49.16854        6.93105
C         39.20783       47.95637        6.13127
C         40.65105       47.67316        5.70600
O         41.12726       46.56813        5.92189
C         38.50791       46.74528        6.83417
C         38.83376       46.58513        8.33228
C         38.28864       45.28446        8.86244
O         37.08626       45.07019        8.86356
O         39.13303       44.34444        9.32987
H         40.04092       49.55755        7.28986
H         38.69046       48.13137        5.16330
H         38.78893       45.81399        6.29120
H         37.40546       46.84021        6.74657
H         38.38564       47.42486        8.91167
H         39.93084       46.59808        8.48883
N         41.42069       48.59638        5.03913
C         41.04516       49.97171        4.73841
H         40.05266       50.28311        5.09669
H         41.79596       50.65099        5.19992
H         41.04735       50.13788        3.64385
H         42.35996       48.30452        4.72945
Ca        32.03492       44.20346        2.98712
O         29.36588       43.04866        5.70417
H         29.53181       42.36995        5.00920
H         28.46946       42.82578        6.05616
O         33.94075       45.38222        5.15275
H         34.23263       46.32655        5.12103
H         34.66001       44.92174        5.65318
O         32.75103       43.04174        6.60837
H         32.54931       42.12842        6.93027
H         33.71740       43.15296        6.78921
O         30.93588       45.53770        5.63111
H         31.00197       46.52364        5.66755
H         30.08803       45.33961        6.09936

Ca 1.70



