%chk=loop2.cluster159.chk
%nprocshared=48
%mem=10GB
%nosave
#b3lyp/svp scf=(tight,noincore) Test 
#IOP(5/87=12) Density=Current Pop=(MK,readradii) iop(6/33=2) iop(6/42=6)

loop2.cluster159 

   -2  1 
C         50.60115       48.68783       16.99754
C         51.20157       48.92131       15.64987
O         50.73185       48.33322       14.68740
H         49.61852       48.17765       16.89067
H         51.27621       48.06253       17.61541
H         50.42748       49.66634       17.49038
N         52.23939       49.79930       15.49919
C         52.78077       50.14551       14.18945
C         51.69110       50.85665       13.40266
O         51.43398       52.03213       13.62439
C         54.05021       51.01165       14.33694
C         54.73075       51.36767       13.03921
O         54.29347       50.97838       11.96734
O         55.84491       52.12317       13.06598
H         52.62197       50.26105       16.33782
H         53.08108       49.19923       13.68261
H         54.78318       50.44897       14.95502
H         53.79187       51.95009       14.87237
N         50.92464       50.13140       12.55326
C         49.71967       50.64792       11.90821
C         48.75929       49.49610       11.63872
O         49.17402       48.34923       11.74685
C         50.15301       51.28816       10.58666
H         51.16191       49.13532       12.45151
H         49.20379       51.36849       12.57828
H         50.74667       50.54818       10.00231
H         49.29797       51.60728        9.96362
H         50.80194       52.16608       10.78536
N         47.46575       49.65195       11.25239
C         46.65742       50.87676       11.19173
C         46.41715       51.48833       12.57557
O         46.17228       50.75461       13.52200
C         45.31340       50.54848       10.45950
C         44.44441       49.45420       11.05784
O         44.90441       48.35932       11.32916
O         43.13313       49.63428       11.23479
H         47.01768       48.77596       10.97825
H         47.15081       51.63231       10.54850
H         45.59516       50.19389        9.44550
H         44.70465       51.47014       10.32587
N         46.41263       52.84780       12.74548
C         46.13856       53.48357       14.03393
C         47.38315       53.57878       14.90665
O         48.44334       53.16244       14.46413
H         46.52820       53.45571       11.92019
H         45.28977       52.96807       14.53267
H         45.82510       54.53456       13.84554
N         47.37458       54.16825       16.14530
C         46.17208       54.61068       16.83806
C         46.10515       53.91465       18.17989
O         46.83858       54.27232       19.09101
C         46.12608       56.13682       17.04369
C         45.89138       56.86174       15.74661
N         46.88983       57.02145       14.85027
O         44.78304       57.31758       15.50652
H         48.27269       54.26685       16.64418
H         45.25828       54.34250       16.27192
H         47.03645       56.52384       17.55432
H         45.25864       56.35459       17.70705
H         47.83869       56.67783       15.05466
H         46.71418       57.51749       13.96405
N         45.22555       52.89799       18.36200
C         45.08213       52.25625       19.66179
C         44.09083       51.11454       19.74938
O         43.88550       50.64110       20.86187
H         44.66585       52.61600       17.55665
H         44.77438       53.03387       20.38997
H         46.06404       51.83899       19.98007
N         43.45306       50.58193       18.66512
C         42.66966       49.36469       18.75279
C         43.17517       48.36092       17.74583
O         43.89805       48.72455       16.82213
C         41.16488       49.64401       18.56435
C         40.60490       50.44970       19.73921
O         40.94349       50.35090       17.36708
H         43.57050       50.97797       17.72658
H         42.80423       48.88936       19.74987
H         40.62743       48.66542       18.56366
H         40.36651       49.79386       16.78420
H         40.83509       49.93621       20.69857
H         41.04149       51.47023       19.76604
H         39.50152       50.53156       19.64922
N         42.89282       47.04680       17.91141
C         43.32695       46.01444       16.98582
C         42.16356       45.09115       16.66301
O         41.21992       44.99733       17.44223
C         44.56201       45.24276       17.52986
C         45.83503       46.13144       17.48248
C         44.30173       44.71017       18.95132
C         47.11272       45.34016       17.76957
H         42.37265       46.76476       18.75951
H         43.63007       46.47595       16.01653
H         44.74389       44.38812       16.84191
H         45.76060       46.99025       18.18559
H         45.94472       46.53981       16.45332
H         44.16289       45.55376       19.66274
H         43.39291       44.07619       18.96544
H         45.14594       44.09481       19.31606
H         47.17096       44.47881       17.07853
H         48.00532       45.97930       17.60443
H         47.14266       44.96827       18.81245
N         42.14720       44.40592       15.49090
C         40.99944       43.64422       15.02627
C         41.41038       42.55673       14.04598
O         42.17711       42.80562       13.12419
C         39.94255       44.57101       14.40052
C         40.50315       45.39878       13.28643
O         40.98591       46.61986       13.55378
O         40.48666       44.98982       12.13714
H         42.91855       44.56141       14.83671
H         40.50268       43.15369       15.89405
H         39.54595       45.25637       15.18105
H         39.08038       43.97352       14.03177
N         40.84589       41.32855       14.15773
C         41.12196       40.20408       13.26781
C         42.52268       39.65709       13.54024
O         42.81675       39.36335       14.69180
C         40.05810       39.12495       13.55281
C         40.29386       37.78147       12.91487
C         40.85584       36.75793       13.69397
C         39.91421       37.51200       11.58836
C         41.03347       35.48263       13.16547
C         40.08255       36.22177       11.06494
C         40.63983       35.20952       11.85508
H         40.14440       41.19968       14.90518
H         40.98559       40.51194       12.21107
H         39.04721       39.50270       13.27767
H         40.02877       38.96366       14.65151
H         41.15504       36.95428       14.71619
H         39.46725       38.28409       10.97374
H         41.46637       34.70479       13.78014
H         39.77195       36.00056       10.05195
H         40.76335       34.21163       11.45591
N         43.43658       39.44848       12.53776
C         44.75265       38.87478       12.77783
C         45.75412       39.89469       13.31428
O         46.90600       39.53727       13.51755
C         45.14834       38.38870       11.37457
C         44.52076       39.44051       10.47205
C         43.16346       39.67315       11.13304
H         44.70787       37.99587       13.45891
H         46.23478       38.21182       11.21721
H         44.60787       37.43617       11.17324
H         45.12512       40.36855       10.58265
H         44.46412       39.18101        9.39266
H         42.82408       40.70692       10.90579
H         42.40879       38.92763       10.80019
N         45.39696       41.19382       13.52011
C         46.35483       42.23638       13.88675
C         46.95577       42.06460       15.27130
O         47.94930       42.72298       15.54524
C         45.66026       43.61305       13.79263
C         45.30194       43.94189       12.32680
C         44.37059       45.10873       12.16393
O         44.01624       45.86858       13.21528
O         43.91670       45.36228       11.05971
H         44.42682       41.47278       13.33197
H         47.19501       42.20967       13.15771
H         46.28482       44.43428       14.20617
H         44.74777       43.53537       14.41477
H         44.80172       43.07305       11.85659
H         46.23545       44.14599       11.75884
N         46.41216       41.22934       16.20422
C         46.97567       41.08170       17.53492
H         47.89155       41.69264       17.68666
H         46.22722       41.39826       18.29128
H         47.24045       40.01850       17.70873
H         45.55833       40.69725       15.98440
Ca        42.12886       47.76340       12.00693
O         41.31946       47.31502        9.31265
H         40.36377       47.09673        9.17565
H         41.81275       46.63165        8.79367
O         40.22500       49.45189       11.98851
H         39.56065       49.57560       12.70783
H         39.82307       49.80695       11.15945
O         43.14495       49.36403       14.01647
H         42.97799       48.55909       14.56479
H         44.10675       49.30737       13.79622

Ca 1.70



