%chk=loop1.cluster22.chk
%nprocshared=48
%mem=10GB
%nosave
#b3lyp/svp scf=(tight,noincore) Test 
#IOP(5/87=12) Density=Current Pop=(MK,readradii) iop(6/33=2) iop(6/42=6)

loop1.cluster22 

   0  1 
C         40.18868       17.12547       26.57288
C         39.82833       15.96742       25.69269
O         40.27935       15.88156       24.56352
H         40.90711       17.81324       26.08486
H         39.25942       17.68241       26.82498
H         40.62949       16.73934       27.51735
N         39.01163       15.01011       26.18605
C         38.57539       13.83140       25.44614
C         37.38543       14.09405       24.51277
O         36.84817       13.13142       23.98619
C         38.22987       12.69911       26.45045
C         37.09314       12.98775       27.39568
O         37.19329       13.96123       28.32327
O         36.09770       12.28301       27.37093
H         38.76171       15.10409       27.17455
H         39.42087       13.42650       24.84421
H         39.12835       12.47011       27.06090
H         37.97549       11.78336       25.87392
N         36.88753       15.35545       24.30294
C         35.63457       15.59987       23.57968
C         35.81233       16.62699       22.45424
O         36.06522       17.77606       22.78814
C         34.63335       16.19186       24.60841
C         34.26322       15.19985       25.72151
C         33.39354       15.88113       26.79796
C         32.97234       14.93680       27.94053
N         34.09984       14.56122       28.78949
H         37.35197       16.16325       24.73621
H         35.21744       14.66154       23.17957
H         33.70305       16.53113       24.10483
H         35.11108       17.08278       25.08198
H         35.19237       14.81629       26.18188
H         33.70875       14.34819       25.26971
H         32.47113       16.25598       26.30693
H         33.93526       16.74990       27.23420
H         32.49325       14.02676       27.51632
H         32.22585       15.45602       28.57886
H         34.51115       15.40421       29.25270
H         33.78926       13.87938       29.51810
H         34.81857       14.10077       28.21194
N         35.67896       16.36850       21.10372
C         35.60885       15.07424       20.40403
C         34.34235       14.26462       20.60383
O         33.55258       14.60350       21.47406
C         36.88554       14.28061       20.70370
C         38.11118       15.02588       20.26583
O         38.04122       16.02397       19.56429
O         39.30105       14.60748       20.69374
H         35.75975       17.18946       20.48180
H         35.59485       15.31625       19.31817
H         36.89496       13.27229       20.25194
H         36.96228       14.12821       21.78617
N         34.00055       13.21543       19.78202
C         34.73795       12.76097       18.59272
C         34.88497       11.24276       18.59077
O         33.96152       10.57872       19.02980
H         33.09477       12.75662       19.96026
H         35.68406       13.29582       18.40981
H         34.09309       12.98928       17.71822
N         35.96803       10.58362       18.07555
C         37.11639       11.20064       17.43128
C         38.17040       11.44447       18.47340
O         38.69850       12.53677       18.53088
C         37.65572       10.30257       16.30051
C         36.56697        9.95971       15.32010
O         36.21259        8.67380       15.13485
O         35.98638       10.84196       14.70744
H         35.96461        9.55087       18.13735
H         36.84111       12.16101       16.94067
H         38.06642        9.36118       16.72407
H         38.47880       10.82549       15.76116
N         38.42537       10.50021       19.42747
C         39.25167       10.80947       20.57004
C         40.71158       10.89665       20.22116
O         41.34809        9.87758       20.00560
H         37.91553        9.60791       19.42376
H         39.12177       10.05025       21.37044
H         38.88659       11.76750       21.00548
N         41.31551       12.11006       20.26707
C         42.74449       12.33614       20.28740
C         42.97358       13.78091       20.83955
O         43.08294       14.71570       19.80165
C         43.51402       11.97679       18.97025
C         42.88430       12.54618       17.68266
O         43.66549       10.57649       18.88651
H         40.72153       12.91322       20.45345
H         43.13818       11.65857       21.07473
H         44.54384       12.39237       19.04597
H         43.27581       10.22806       18.04294
H         43.46614       12.22505       16.79172
H         41.85323       12.15772       17.56583
H         42.87756       13.64248       17.67871
N         44.17711       13.80051       21.66730
C         44.51714       15.06598       22.32894
C         45.99711       14.99422       22.54885
O         46.47297       14.81831       23.66293
C         43.65996       15.47120       23.58281
C         44.17156       16.78324       24.26382
C         43.55361       14.38075       24.66044
C         44.20363       18.00875       23.35205
H         44.19644       13.02158       22.36251
H         44.35992       15.90099       21.61056
H         42.62431       15.66121       23.22693
H         45.18892       16.64365       24.69122
H         43.49669       17.03322       25.10908
H         42.90917       14.74352       25.49204
H         43.07063       13.47078       24.25420
H         44.54257       14.12098       25.08754
H         44.49401       18.90867       23.93530
H         44.95188       17.89063       22.56563
H         43.21956       18.17679       22.87511
N         46.79601       15.18476       21.47279
C         48.22974       15.35871       21.56074
C         48.56429       16.84576       21.45315
O         49.73155       17.20018       21.45258
C         48.91612       14.50814       20.45988
C         48.58758       14.98588       19.03438
O         48.52753       13.16230       20.57389
H         46.33489       15.37982       20.56919
H         48.60593       15.01386       22.55002
H         50.01939       14.58244       20.57970
H         48.74971       12.86561       21.49446
H         48.93897       16.02485       18.88037
H         49.10202       14.34034       18.29436
H         47.50267       14.93959       18.81038
N         47.55380       17.77140       21.38244
C         47.71407       19.20310       21.19577
C         48.18555       19.45639       19.77812
O         48.44076       18.50759       19.04755
C         48.60990       19.89287       22.27200
C         48.36983       19.34874       23.69278
O         48.35988       21.28210       22.23238
H         46.58762       17.45417       21.40730
H         46.69325       19.64407       21.28573
H         49.67915       19.71237       22.02901
H         48.55209       21.69624       23.11280
H         48.64259       18.27650       23.75717
H         49.03121       19.88629       24.40799
H         47.31328       19.48581       23.99838
N         48.31910       20.72148       19.30980
C         48.99755       21.00257       18.06523
C         48.15213       21.19019       16.81130
O         48.78085       21.16130       15.76149
C         49.90559       22.23499       18.24999
C         51.04605       22.04434       19.26434
C         52.01230       20.94024       18.79851
C         53.32662       20.87420       19.58236
N         54.14126       22.07623       19.38838
H         48.16529       21.49865       19.95676
H         49.63754       20.13234       17.80893
H         49.27720       23.09410       18.56708
H         50.37213       22.50891       17.28038
H         50.66413       21.81862       20.28529
H         51.57218       23.01892       19.30478
H         52.26555       21.09748       17.72734
H         51.51182       19.95474       18.90048
H         53.89281       19.99948       19.19141
H         53.13307       20.70715       20.66422
H         53.71548       22.89553       19.87581
H         55.09063       21.91140       19.79235
H         54.24651       22.28437       18.36796
N         46.80456       21.42107       16.71457
C         45.76145       21.58560       17.72177
C         46.10925       22.49314       18.87913
O         45.90568       22.12113       20.02800
C         45.06827       20.24329       18.05176
C         43.62112       20.50458       18.51650
C         42.81658       19.25355       18.62398
O         41.84869       19.08998       17.89541
O         43.14019       18.31637       19.53354
H         46.46645       21.55917       15.74774
H         44.98140       22.15969       17.17416
H         45.64699       19.63339       18.77760
H         44.99849       19.66043       17.10591
H         43.12132       21.14352       17.75430
H         43.59948       21.03449       19.48887
N         46.60629       23.73599       18.63402
C         47.00978       24.64378       19.68860
H         48.01508       25.05146       19.45123
H         46.28930       25.48425       19.74653
H         47.07595       24.14271       20.67818
H         46.69659       24.05477       17.65827
Ca        41.24724       16.06283       19.59723
O         43.02239       15.97664       17.25058
H         42.85403       16.92029       17.46114
H         42.79492       15.90088       16.29291
O         39.46822       17.19291       16.94727
H         39.06719       18.09198       16.87439
H         38.79949       16.59005       16.53464
O         39.41061       18.77013       19.68346
H         39.21654       19.35526       20.45729
H         39.15056       19.31188       18.89840
O         40.40572       14.73562       17.29070
H         40.42558       14.57923       16.31540
H         40.45273       13.84041       17.69280
O         40.71297       17.37026       21.87908
H         40.05388       16.99801       22.51020
H         40.70756       18.34221       22.05369

Ca 1.70



