%chk=loop3.cluster36.chk
%nprocshared=48
%mem=10GB
%nosave
#b3lyp/svp scf=(tight,noincore) Test 
#IOP(5/87=12) Density=Current Pop=(MK,readradii) iop(6/33=2) iop(6/42=6)

loop3.cluster36 

   0  1 
C         51.19713       46.34242       43.95326
C         50.63481       46.41772       45.32685
O         51.23726       45.90609       46.25327
H         52.18542       45.83933       43.97086
H         50.49435       45.77527       43.31049
H         51.31800       47.37407       43.55991
N         49.48182       47.09320       45.54023
C         48.92867       47.26705       46.86820
C         48.29604       45.95832       47.33255
O         47.30316       45.52719       46.76294
C         47.95839       48.43165       46.79390
C         47.41069       48.86362       48.08323
O         46.66964       49.81133       48.07436
O         47.73737       48.26893       49.24404
H         49.03442       47.56462       44.73742
H         49.75227       47.58435       47.55254
H         47.11893       48.18942       46.10838
H         48.50589       49.31454       46.38743
N         48.90909       45.22568       48.30271
C         48.56109       43.83149       48.60584
C         47.36037       43.66220       49.52975
O         46.84114       42.55935       49.63731
C         49.81325       43.10640       49.15621
C         51.02622       43.16355       48.17686
C         50.71364       42.62421       46.76675
C         50.37407       41.12479       46.78165
N         49.59680       40.74724       45.60478
H         49.78300       45.60589       48.67688
H         48.24912       43.34170       47.66200
H         49.55864       42.05810       49.39846
H         50.11234       43.57918       50.11560
H         51.89090       42.62550       48.61617
H         51.34634       44.21353       48.06049
H         51.56810       42.79817       46.07623
H         49.88052       43.21536       46.34020
H         49.75846       40.85832       47.65881
H         51.31882       40.54015       46.84728
H         48.68658       41.26649       45.61925
H         50.11405       40.96065       44.72369
H         49.38391       39.72495       45.65694
N         46.84797       44.73080       50.18624
C         45.57682       44.73195       50.91736
C         44.58284       45.69209       50.25047
O         43.43327       45.73780       50.66837
C         45.75788       45.10475       52.41962
C         46.47062       46.41305       52.70274
O         47.13864       47.04441       51.72303
O         46.52106       46.84473       53.84264
H         47.36197       45.60432       50.09021
H         45.11417       43.71791       50.88430
H         46.33221       44.30573       52.93745
H         44.74990       45.13306       52.88979
N         44.95869       46.48343       49.19868
C         44.07902       47.41264       48.51868
C         43.60417       48.55721       49.39120
O         42.50798       49.04472       49.15975
H         45.91125       46.43011       48.83217
H         43.21927       46.86687       48.07250
H         44.64532       47.86091       47.67452
N         44.38279       49.06234       50.39702
C         43.89532       50.11224       51.30641
C         44.17469       51.53680       50.80365
O         43.71689       52.49376       51.41161
C         44.46188       49.87528       52.72137
C         45.88531       50.34586       52.88531
N         46.22624       51.16082       53.90985
O         46.73318       49.99724       52.08775
H         45.29291       48.61766       50.58346
H         42.79669       49.97702       51.39894
H         44.39990       48.78613       52.94034
H         43.83097       50.40345       53.46406
H         45.52253       51.45842       54.59995
H         47.20025       51.47656       54.02412
N         44.94411       51.72997       49.70150
C         45.26161       53.00251       49.08372
C         46.75366       53.31096       49.03193
O         47.10566       54.29171       48.39482
H         45.29984       50.91107       49.24946
H         44.74260       53.84719       49.57876
H         44.90191       52.94439       48.03174
N         47.68553       52.56014       49.70290
C         49.10973       52.90520       49.69388
C         49.98240       51.70997       49.35272
O         49.71839       50.61344       49.81966
C         49.58634       53.40551       51.06930
C         48.85573       54.60713       51.60676
C         49.39034       55.89764       51.45120
C         47.67162       54.43487       52.33927
C         48.74508       56.99975       52.02133
C         47.03473       55.53562       52.91777
C         47.57116       56.82246       52.76166
O         46.97110       57.89028       53.32569
H         47.38158       51.76582       50.27964
H         49.32420       53.73036       48.97996
H         50.66584       53.66649       50.97662
H         49.53260       52.60199       51.82707
H         50.30790       56.04838       50.89541
H         47.25921       53.44504       52.48204
H         49.16488       57.99073       51.89998
H         46.13266       55.38658       53.49721
H         46.16510       57.80043       53.85411
N         51.17775       51.92749       48.73571
C         52.21049       50.90506       48.61764
C         53.24491       51.17125       49.69720
O         53.76708       52.27158       49.78142
C         52.86621       50.96802       47.21031
C         51.83239       50.63837       46.10984
C         54.08444       50.02145       47.10731
C         52.27567       51.17127       44.74691
H         51.42070       52.88973       48.45926
H         51.79466       49.88279       48.75918
H         53.22348       52.01198       47.06662
H         50.87043       51.14390       46.33037
H         51.63689       49.54193       46.07128
H         54.87573       50.33240       47.81844
H         53.78956       48.97562       47.33564
H         54.54648       50.04354       46.10187
H         53.21724       50.70351       44.39866
H         51.48180       50.98125       43.99621
H         52.42524       52.27180       44.81796
N         53.64054       50.14672       50.50152
C         54.75319       50.24302       51.43191
C         55.93152       49.50823       50.81606
O         55.81791       48.99794       49.71625
C         54.36453       49.66751       52.80933
O         54.13832       48.28581       52.74341
H         53.24175       49.22350       50.34304
H         55.05265       51.30218       51.57622
H         53.47812       50.19722       53.22992
H         55.18598       49.83354       53.53643
H         53.19818       48.16754       52.46556
N         57.11817       49.45514       51.47077
C         58.31111       48.85650       50.87487
C         58.12530       47.38361       50.55595
O         58.43435       46.96314       49.44819
C         59.48502       49.02110       51.83573
H         57.18759       49.89409       52.39798
H         58.55992       49.41597       49.94465
H         59.33261       48.40381       52.74607
H         60.42486       48.71578       51.33157
H         59.57407       50.08630       52.13796
N         57.61721       46.53946       51.49488
C         57.39188       45.11243       51.27132
C         56.44485       44.84154       50.11172
O         56.52959       43.78476       49.50205
C         56.79306       44.50729       52.54572
H         57.36459       46.94115       52.41205
H         58.36545       44.61688       51.05697
H         55.83473       45.02085       52.78715
H         56.59834       43.42121       52.43181
H         57.49300       44.66058       53.39485
N         55.46835       45.73656       49.80551
C         54.50365       45.53081       48.73085
C         55.10142       45.89496       47.37834
O         54.64259       45.38067       46.36716
C         53.24167       46.35725       49.03205
C         52.59670       45.89269       50.35326
C         51.34632       46.65226       50.68750
O         50.30885       46.05344       50.90907
O         51.36818       47.98778       50.80473
H         55.38498       46.58327       50.38199
H         54.19776       44.45929       48.70357
H         52.51384       46.25287       48.21502
H         53.52593       47.42463       49.09859
H         53.31145       46.02325       51.19121
H         52.35519       44.81058       50.28250
N         56.15064       46.76221       47.29488
C         56.84096       47.08098       46.06385
H         57.89977       46.75824       46.16502
H         56.40272       46.57461       45.18042
H         56.82463       48.17925       45.90115
H         56.49310       47.21181       48.14653
Ca        48.83256       48.51588       51.91167
O         50.26195       50.57575       53.10865
H         50.82762       50.12780       53.78424
H         49.57577       51.05693       53.63535
O         50.44884       47.16499       53.64523
H         50.32871       47.39485       54.59836
H         51.42747       47.14595       53.51020

Ca 1.70



