%chk=loop4.cluster69.chk
%nprocshared=48
%mem=10GB
%nosave
#b3lyp/svp scf=(tight,noincore) Test 
#IOP(5/87=12) Density=Current Pop=(MK,readradii) iop(6/33=2) iop(6/42=6)

loop4.cluster69 

   -3  1 
C         70.24846       53.08833       44.50131
C         69.46547       53.18760       45.77289
O         68.51301       53.95180       45.83984
H         71.18879       52.51864       44.66719
H         69.64850       52.57913       43.72157
H         70.52877       54.10816       44.16514
N         69.81252       52.41897       46.83613
C         69.19273       52.55876       48.14006
C         69.72911       53.82220       48.78531
O         70.93913       54.00439       48.82221
C         69.51587       51.32009       48.98117
C         68.94658       51.43582       50.35171
O         67.74957       51.61090       50.51841
O         69.77414       51.36721       51.40441
H         70.56896       51.72603       46.72066
H         68.08165       52.58511       48.04364
H         70.61561       51.18213       49.06426
H         69.08245       50.42377       48.48526
N         68.88042       54.73526       49.32931
C         69.33780       56.01416       49.85875
C         69.53039       55.96951       51.36752
O         70.41434       56.65711       51.86053
C         68.37013       57.17185       49.44167
C         68.14456       57.17477       47.90265
C         68.90221       58.52622       49.95684
C         67.37804       58.39666       47.38282
H         67.87620       54.52049       49.35391
H         70.33208       56.26018       49.41920
H         67.37519       57.01675       49.91760
H         67.55725       56.26704       47.64269
H         69.11060       57.12517       47.35771
H         69.91308       58.73455       49.54894
H         68.21873       59.35838       49.69624
H         68.94221       58.53149       51.06500
H         68.01151       59.30595       47.46367
H         67.13716       58.26505       46.30772
H         66.43596       58.55212       47.94916
N         68.68277       55.26291       52.16950
C         68.70300       55.38963       53.63162
C         69.00554       54.07062       54.34366
O         68.51922       53.84673       55.44522
C         67.39373       56.08489       54.07816
C         66.17558       55.31148       53.66738
O         65.16249       55.90631       53.32942
O         66.29939       53.99650       53.40841
H         67.96105       54.67730       51.72949
H         69.52525       56.06466       53.94902
H         67.37819       57.07209       53.55638
H         67.35050       56.28437       55.16612
N         69.92718       53.21923       53.81764
C         70.52798       52.10191       54.53331
C         69.59533       51.01771       55.03281
O         69.70787       50.63717       56.18805
H         70.30291       53.42805       52.88040
H         71.11545       52.49731       55.39050
H         71.24676       51.61383       53.84179
N         68.68025       50.44647       54.20245
C         67.84135       49.31272       54.59841
C         67.89169       48.14032       53.60729
O         67.43161       47.06319       53.97185
C         66.41096       49.82176       54.87912
C         65.77188       50.61423       53.76758
O         64.77106       51.46523       54.05519
O         66.20737       50.57269       52.63305
H         68.53549       50.86970       53.28718
H         68.21488       48.89699       55.56160
H         66.50770       50.52591       55.73276
H         65.73064       49.00453       55.20271
N         68.40635       48.25894       52.34125
C         68.47529       47.15099       51.39500
C         67.33785       47.14630       50.38590
O         67.27343       46.23514       49.57951
H         68.71305       49.17622       52.00210
H         68.41098       46.17855       51.92986
H         69.45824       47.17435       50.87738
N         66.35078       48.08586       50.44990
C         65.09831       47.98456       49.71239
C         64.85512       49.27313       48.95464
O         64.94732       50.34173       49.53865
C         63.96385       47.71608       50.72187
C         64.25314       46.45243       51.56289
C         63.17730       46.14450       52.57176
N         63.45458       45.34471       53.62816
O         62.06036       46.62648       52.45353
H         66.42533       48.83823       51.13047
H         65.10391       47.12832       49.00537
H         63.00779       47.59550       50.16769
H         63.86859       48.57731       51.42010
H         65.18925       46.63003       52.13300
H         64.41296       45.55896       50.91903
H         64.40260       44.96110       53.76060
H         62.73050       45.14053       54.33238
N         64.50968       49.22946       47.63607
C         64.35971       50.42710       46.82088
C         62.88302       50.71850       46.61992
O         62.20851       50.00387       45.89347
C         65.13224       50.21803       45.48655
C         64.87406       51.31672       44.44579
C         66.64366       50.09404       45.74808
H         64.33842       48.31588       47.19550
H         64.79882       51.30380       47.34022
H         64.77772       49.26509       45.03482
H         65.41658       51.06749       43.50770
H         63.79520       51.36322       44.18832
H         65.20768       52.30975       44.80827
H         67.17918       49.87763       44.79941
H         67.04753       51.03676       46.17644
H         66.85896       49.26433       46.45433
N         62.31844       51.77589       47.27415
C         60.94149       52.19119       47.12137
C         60.80801       53.07012       45.89337
O         61.79592       53.32685       45.22622
C         60.44281       52.85577       48.44103
C         60.99584       54.23385       48.74928
N         61.77985       54.45899       49.82803
O         60.68636       55.17064       48.04030
H         62.87767       52.29320       47.93839
H         60.31426       51.28461       46.98494
H         60.68347       52.15769       49.27256
H         59.33790       52.95557       48.41237
H         62.06140       53.69342       50.44422
H         62.11391       55.41210       50.04000
N         59.59226       53.53726       45.52424
C         59.33712       54.34192       44.32842
C         60.02556       55.70442       44.36321
O         60.60268       56.09611       43.35912
C         57.81981       54.51297       44.20955
C         57.40400       55.39743       43.07249
C         57.40981       54.93083       41.74863
C         56.99234       56.70815       43.34691
C         56.98403       55.77013       40.71319
C         56.58652       57.54768       42.31421
C         56.57271       57.08005       40.99301
O         56.16565       57.88233       39.99010
H         58.79038       53.27092       46.11623
H         59.68828       53.79881       43.42134
H         57.45470       54.95000       45.16321
H         57.33752       53.51587       44.09960
H         57.72161       53.91736       41.52408
H         56.99953       57.07997       44.36458
H         56.96964       55.40312       39.69480
H         56.27876       58.55909       42.54390
H         55.87750       58.79145       40.15659
N         59.98994       56.48917       45.47696
C         60.69310       57.77132       45.54796
C         62.17665       57.56949       45.22843
O         62.73440       58.30318       44.42544
C         60.52120       58.41988       46.95023
C         60.69703       59.94715       46.87203
C         60.59623       60.60215       48.22077
O         59.75071       61.45928       48.42691
O         61.46244       60.27219       49.19709
H         59.46653       56.15581       46.29565
H         60.22849       58.44947       44.79886
H         61.23568       57.96137       47.67312
H         59.49340       58.24363       47.33550
H         59.89675       60.35699       46.21187
H         61.68129       60.19879       46.43060
N         62.84951       56.52799       45.79657
C         64.25135       56.20560       45.51883
C         64.44625       55.78761       44.06463
O         65.50568       56.03263       43.50557
C         64.75001       55.08826       46.46741
C         64.55805       55.50050       47.93647
C         64.98080       54.44900       48.89437
O         65.57168       54.79121       50.02648
O         64.60356       53.30770       48.77064
H         62.32312       55.91769       46.43000
H         64.87301       57.10162       45.73149
H         65.82722       54.88302       46.28516
H         64.18019       54.15032       46.27752
H         63.48933       55.66614       48.14638
H         65.08184       56.44846       48.17333
N         63.44222       55.16863       43.38568
C         63.52752       54.79915       41.99157
H         63.71404       55.70137       41.37320
H         64.32669       54.04677       41.83576
H         62.55766       54.35602       41.66862
H         62.57077       54.97155       43.87059
Ca        65.32925       53.25727       51.60148
O         62.79734       51.62601       51.59090
H         62.54832       50.71527       51.29858
H         61.94588       52.02476       51.90137

Ca 1.70



