%chk=loop3.cluster138.chk
%nprocshared=48
%mem=10GB
%nosave
#b3lyp/svp scf=(tight,noincore) Test 
#IOP(5/87=12) Density=Current Pop=(MK,readradii) iop(6/33=2) iop(6/42=6)

loop3.cluster138 

   0  1 
C         66.71348       28.80286       22.54138
C         67.89180       29.64313       22.12368
O         67.75910       30.85483       22.03941
H         65.86105       28.97264       21.84925
H         66.96270       27.72071       22.51398
H         66.40215       29.06508       23.57340
N         69.08416       29.04201       21.82720
C         70.29539       29.73858       21.37895
C         70.18003       30.31372       19.96141
O         71.16214       30.85239       19.46137
C         70.76456       30.75845       22.44567
C         72.16022       31.25536       22.18187
O         72.37290       32.44849       22.03861
O         73.18530       30.38259       22.12319
H         69.15106       28.02021       21.93612
H         71.08801       28.96294       21.30998
H         70.78745       30.25045       23.43453
H         70.06310       31.61703       22.51509
N         69.03212       30.19472       19.23247
C         68.87211       30.68333       17.86314
C         69.22041       32.15927       17.78445
O         70.07908       32.53948       17.00440
C         67.40556       30.43867       17.38669
C         67.29118       29.37139       16.29040
C         65.80773       29.13817       15.96340
C         65.57293       28.23033       14.74987
N         65.99809       26.85118       14.98648
H         68.22801       29.73072       19.66843
H         69.57665       30.14101       17.19130
H         66.95614       31.37645       16.99276
H         66.75046       30.14386       18.23611
H         67.76254       28.42093       16.62045
H         67.82277       29.74496       15.38693
H         65.34279       30.11971       15.72857
H         65.28871       28.71523       16.85317
H         66.09664       28.64672       13.86080
H         64.48112       28.23272       14.53738
H         65.70746       26.26834       14.16810
H         67.03638       26.79511       15.08452
H         65.53395       26.47396       15.84460
N         68.58232       33.03752       18.59771
C         68.89031       34.46046       18.64195
C         68.73255       34.93447       20.07207
O         67.65093       34.82228       20.63119
C         67.95473       35.21058       17.67438
C         67.79535       36.67222       17.98977
O         66.68543       37.08730       18.28273
O         68.82966       37.52786       18.04280
H         67.85719       32.67311       19.23189
H         69.93908       34.66096       18.32619
H         66.93856       34.76970       17.76487
H         68.30097       35.06143       16.62924
N         69.79110       35.49356       20.72132
C         69.67280       36.03341       22.06145
C         68.87906       37.30860       22.05488
O         68.41507       37.73091       21.01329
H         70.70455       35.56009       20.24983
H         70.68586       36.30621       22.42543
H         69.23701       35.27944       22.74992
N         68.72502       38.00310       23.20710
C         68.09989       39.31784       23.24910
C         69.07600       40.35465       23.82923
O         68.69678       41.51084       23.93930
C         66.83481       39.20571       24.10529
C         65.89736       38.11335       23.64095
N         65.28236       38.19491       22.44243
O         65.69337       37.14629       24.35976
H         69.07471       37.59362       24.08579
H         67.79912       39.66234       22.23734
H         66.28153       40.16896       24.13491
H         67.18921       38.94570       25.10800
H         65.44439       39.00528       21.83782
H         64.64144       37.45154       22.12701
N         70.35379       40.01299       24.20267
C         71.30505       40.91329       24.85016
C         70.88704       41.25577       26.26707
O         70.56793       40.35014       27.02515
H         70.69487       39.06019       24.01998
H         71.47272       41.81964       24.23049
H         72.27414       40.37572       24.93296
N         70.84247       42.56179       26.68450
C         70.30246       42.99531       27.98320
C         68.82173       42.67329       28.10180
O         68.26545       42.83723       29.17533
C         71.10934       42.45496       29.18386
C         72.56344       42.79567       29.01577
C         73.48010       41.77373       28.74305
C         73.00822       44.12902       29.08534
C         74.82023       42.07610       28.50839
C         74.35526       44.42911       28.86039
C         75.26248       43.40183       28.55711
O         76.55619       43.67927       28.30143
H         71.15571       43.29516       26.03197
H         70.37626       44.10380       28.03609
H         70.96846       41.35790       29.25780
H         70.73942       42.89334       30.13997
H         73.14651       40.74568       28.68207
H         72.31397       44.93202       29.30577
H         75.51156       41.27860       28.27268
H         74.69129       45.45781       28.90848
H         76.88756       44.58803       28.28730
N         68.12145       42.25546       27.00354
C         66.69187       42.03645       26.91476
C         66.01360       43.39658       26.82454
O         65.60263       43.74874       25.72962
C         66.17673       40.96381       27.92064
C         66.87840       39.59661       27.66422
C         64.66098       40.76251       27.77109
C         67.08423       38.76233       28.91942
H         68.61642       42.16004       26.12273
H         66.51767       41.59316       25.90840
H         66.40145       41.31062       28.94769
H         67.89246       39.73300       27.23304
H         66.26743       38.99705       26.95794
H         64.12395       41.67956       28.03187
H         64.40691       40.50113       26.71808
H         64.29304       39.95777       28.43806
H         66.12798       38.57214       29.44401
H         67.54309       37.78915       28.63440
H         67.79145       39.29173       29.59278
N         65.93707       44.26212       27.87795
C         65.37482       45.60802       27.71973
C         63.89019       45.58818       27.36217
O         63.38702       46.57667       26.84765
C         65.58883       46.43913       28.98778
O         64.91853       45.83844       30.06396
H         66.30962       43.98287       28.79155
H         65.93308       46.10293       26.89103
H         65.20169       47.46980       28.83514
H         66.68504       46.49241       29.18841
H         65.38456       46.13030       30.88883
N         63.13882       44.47633       27.59996
C         61.74723       44.30103       27.20572
C         61.56542       44.45804       25.70324
O         60.54740       44.97519       25.26490
C         60.79945       45.17516       28.03642
H         63.58453       43.68553       28.06885
H         61.48363       43.24633       27.44340
H         60.98292       46.25516       27.86353
H         59.74465       44.94183       27.77499
H         60.93796       44.95234       29.11622
N         62.52013       43.98284       24.85312
C         62.40420       44.02807       23.40268
C         62.38153       42.62743       22.83698
O         62.64045       41.66596       23.54994
C         63.55215       44.84549       22.79278
H         63.35569       43.54559       25.25109
H         61.44178       44.49277       23.10033
H         63.39594       45.92581       22.99627
H         64.53163       44.54145       23.22063
H         63.60089       44.70817       21.69075
N         61.95418       42.44972       21.55159
C         61.77023       41.14883       20.91744
C         60.73337       40.26624       21.61852
O         60.54736       39.13539       21.18800
C         63.13102       40.44707       20.68896
C         64.00663       41.30572       19.75019
C         65.23075       40.61480       19.21970
O         66.28138       40.35616       20.01102
O         65.31073       40.36137       18.02858
H         61.71021       43.28391       20.99862
H         61.34873       41.31879       19.90212
H         62.93614       39.47644       20.18016
H         63.63584       40.24603       21.65231
H         64.30876       42.25063       20.24927
H         63.38882       41.56423       18.86387
N         59.98817       40.71528       22.67361
C         59.00616       39.87916       23.32812
H         58.16231       39.66297       22.63880
H         59.47564       38.93014       23.66131
H         58.60776       40.40454       24.22286
H         60.10002       41.67222       23.02932
Ca        68.08503       39.42030       19.01690
O         67.71063       39.56834       16.07905
H         66.79196       39.80306       15.79692
H         68.29097       40.20591       15.59358
O         70.59286       39.77669       20.40700
H         71.03270       39.06669       20.93625
H         71.08133       40.60503       20.63928
O         68.27422       42.19267       17.61341
H         68.23858       43.12348       17.94565
H         68.34053       42.28613       16.63076
O         70.39084       40.12133       17.43761
H         70.97324       40.91900       17.49443
H         71.00314       39.34991       17.53414
O         68.42749       41.77895       20.65686
H         69.29220       42.21741       20.46804
H         67.87690       42.46893       21.10271

Ca 1.70



