%chk=loop4.cluster75.chk
%nprocshared=48
%mem=10GB
%nosave
#b3lyp/svp scf=(tight,noincore) Test 
#IOP(5/87=12) Density=Current Pop=(MK,readradii) iop(6/33=2) iop(6/42=6)

loop4.cluster75 

   -3  1 
C         54.08662       30.64930       29.57809
C         55.02387       31.77954       29.29750
O         56.16585       31.51722       28.97648
H         53.20239       30.73981       28.91487
H         54.58391       29.67589       29.36578
H         53.77241       30.66894       30.64039
N         54.59097       33.07403       29.36128
C         55.41379       34.22902       28.99535
C         56.22779       34.03707       27.71416
O         57.38722       33.66409       27.77444
C         56.10650       34.92106       30.19141
C         56.65067       34.03438       31.29457
O         56.21444       34.19785       32.42503
O         57.58934       33.07350       31.10869
H         53.60318       33.24328       29.60273
H         54.69132       35.01978       28.69065
H         55.32415       35.54644       30.69070
H         56.86245       35.64529       29.82299
N         55.65125       34.31516       26.50541
C         56.25841       34.09072       25.19045
C         57.59340       34.79771       24.95850
O         58.36637       34.34897       24.12313
C         56.26634       32.59877       24.71475
C         54.85421       32.04425       24.38692
C         57.06660       31.66589       25.63099
C         53.91323       31.81311       25.56988
H         54.69959       34.71329       26.50943
H         55.58682       34.59715       24.46093
H         56.77771       32.59153       23.72713
H         54.97298       31.07107       23.86215
H         54.36067       32.74062       23.67311
H         56.55643       31.53830       26.59813
H         57.16614       30.66247       25.17209
H         58.08421       32.07218       25.81102
H         53.70811       32.74263       26.12698
H         52.94036       31.44142       25.18412
H         54.32457       31.04760       26.25755
N         57.84500       36.00812       25.52264
C         58.95555       36.84780       25.06910
C         60.22488       36.48088       25.82005
O         60.22473       36.61669       27.03108
C         58.60363       38.32500       25.33663
C         57.26451       38.67783       24.74417
O         56.22852       38.96324       25.55770
O         57.09822       38.66162       23.53537
H         57.14893       36.40217       26.17254
H         59.06214       36.74154       23.96869
H         59.38695       39.00069       24.92938
H         58.54222       38.48178       26.43506
N         61.36041       36.01449       25.22309
C         61.55805       35.85016       23.79663
C         61.58608       37.19562       23.09173
O         62.19991       38.11147       23.62225
H         62.15420       35.76431       25.83507
H         60.82616       35.12855       23.38400
H         62.56641       35.39981       23.65874
N         61.01223       37.40949       21.86694
C         60.41803       36.34597       21.04763
C         61.46661       35.26858       20.79137
O         62.64392       35.55257       20.94838
C         59.82813       36.92289       19.73669
C         60.79538       37.77062       18.95352
O         60.53836       39.08125       18.77333
O         61.80877       37.28267       18.48072
H         61.07108       38.36165       21.47579
H         59.58479       35.89613       21.62759
H         58.96428       37.56229       20.01746
H         59.44780       36.12074       19.07309
N         61.14171       33.96208       20.57980
C         59.79565       33.43088       20.38865
C         59.73786       32.26855       19.39567
O         58.66352       31.97360       18.90018
H         61.92567       33.31175       20.69030
H         59.08551       34.21530       20.06307
H         59.40284       33.04486       21.35185
N         60.84955       31.51770       19.11961
C         60.82153       30.31526       18.31104
C         60.30540       29.18306       19.15823
O         59.31577       28.56581       18.77752
C         62.24337       30.03877       17.76521
C         62.69729       31.10991       16.74916
C         61.74246       31.20365       15.58027
N         61.19365       32.39008       15.22653
O         61.45367       30.19403       14.95490
H         61.73341       31.70566       19.58624
H         60.13876       30.43676       17.44444
H         62.25838       29.05260       17.25639
H         62.98282       29.99502       18.59796
H         63.69850       30.82186       16.36545
H         62.79861       32.10207       17.24426
H         61.44064       33.25713       15.72543
H         60.52996       32.44050       14.43902
N         60.89652       28.87144       20.34717
C         60.35041       27.87110       21.25435
C         61.26890       26.67662       21.32953
O         62.48038       26.84194       21.24115
C         60.00442       28.47253       22.64506
C         59.05058       29.66640       22.48462
C         61.23592       28.90788       23.45472
H         61.74579       29.38633       20.63344
H         59.38251       27.49278       20.85519
H         59.47704       27.68687       23.23260
H         59.55523       30.50073       21.95167
H         58.14698       29.37200       21.90989
H         58.72843       30.03545       23.47909
H         61.89776       28.04303       23.65415
H         61.81211       29.69434       22.92793
H         60.91942       29.31741       24.43638
N         60.73653       25.42136       21.41238
C         61.48937       24.17288       21.32147
C         62.43235       23.86005       22.49991
O         62.86258       22.72009       22.59296
C         62.23078       24.10842       19.96407
C         63.00078       22.82914       19.79847
N         64.35354       22.84393       19.85599
O         62.40554       21.77094       19.66260
H         59.70770       25.33893       21.46991
H         60.73050       23.35691       21.33387
H         62.94781       24.94862       19.90547
H         61.51887       24.23161       19.11695
H         64.86100       23.72764       20.01734
H         64.88971       21.96852       19.78522
N         62.79132       24.78429       23.43758
C         63.71983       24.45873       24.52493
C         63.47161       25.36018       25.72084
O         63.18388       26.53439       25.53814
C         65.18708       24.60472       24.06058
C         66.16162       24.23933       25.16530
C         66.26614       22.91055       25.61529
C         66.96301       25.22892       25.76056
C         67.15929       22.57972       26.64122
C         67.85112       24.89547       26.78862
C         67.95158       23.56919       27.23219
O         68.80299       23.23813       28.22506
H         62.44053       25.74160       23.36746
H         63.55162       23.41018       24.85142
H         65.34736       25.65785       23.74033
H         65.39220       23.95602       23.18085
H         65.66026       22.13246       25.16871
H         66.88836       26.26012       25.44032
H         67.23549       21.55342       26.97901
H         68.45268       25.66997       27.24819
H         69.36509       23.89809       28.65622
N         63.60973       24.86380       26.99260
C         63.40790       25.67262       28.19620
C         61.96263       26.07924       28.40324
O         61.69323       26.79096       29.36289
C         64.40107       26.86642       28.25001
C         65.70951       26.52974       28.98048
C         65.53207       26.58999       30.47713
O         64.86311       25.62360       31.13343
O         65.98478       27.53727       31.10110
H         63.87499       23.87674       27.11388
H         63.59328       25.04019       29.08699
H         63.96996       27.74959       28.77006
H         64.64421       27.21769       27.22953
H         66.44103       27.31854       28.70653
H         66.12845       25.54981       28.67346
N         60.96115       25.59177       27.61579
C         59.55789       25.81789       27.91467
C         58.86128       24.46283       28.02396
O         57.77829       24.28915       27.48156
C         58.96538       26.72943       26.81741
C         59.54447       28.16695       26.82744
C         59.08890       29.04455       27.97248
O         59.47333       30.34490       27.99966
O         58.32605       28.61472       28.82225
H         61.17830       24.98475       26.81292
H         59.42956       26.30814       28.90205
H         57.86119       26.79902       26.90099
H         59.20453       26.26185       25.83463
H         59.18567       28.67072       25.90786
H         60.65560       28.13895       26.79535
N         59.45228       23.44562       28.72256
C         58.85069       22.13448       28.88680
H         57.84735       22.05732       28.41861
H         59.50830       21.36033       28.43528
H         58.74886       21.91724       29.97077
H         60.38150       23.59557       29.14283
Ca        58.69628       31.96166       29.43409
O         60.88726       32.76072       31.35478
H         61.67293       32.27684       31.71175
H         60.90296       33.63829       31.81286
O         59.57439       34.77855       29.70051
H         59.25039       35.48182       30.31489
H         59.71328       35.24588       28.84539
O         61.26814       32.63247       28.17476
H         61.59980       32.59402       27.24325
H         61.89306       33.24074       28.64253
O         58.90969       30.15289       31.43737
H         59.63970       29.71542       31.93868
H         58.34340       29.41028       31.11399

Ca 1.70



