%chk=loop2.cluster69.chk
%nprocshared=48
%mem=10GB
%nosave
#b3lyp/svp scf=(tight,noincore) Test 
#IOP(5/87=12) Density=Current Pop=(MK,readradii) iop(6/33=2) iop(6/42=6)

loop2.cluster69 

   -2  1 
C         39.86056       70.93752       22.95427
C         39.93525       70.96826       24.45346
O         40.64438       71.80683       24.99281
H         39.48335       71.91009       22.57558
H         40.87395       70.75730       22.53402
H         39.18902       70.12865       22.59707
N         39.22962       70.07320       25.20757
C         39.31540       70.03226       26.66630
C         40.71708       69.67091       27.15621
O         41.01016       69.90541       28.31604
C         38.29086       69.02591       27.22971
C         38.38854       68.84326       28.72101
O         38.21126       69.89000       29.54908
O         38.65862       67.74539       29.18293
H         38.60991       69.40387       24.72313
H         39.06549       71.04649       27.04393
H         38.46140       68.04142       26.74095
H         37.26588       69.37040       26.97329
N         41.63171       69.10515       26.31628
C         43.01295       68.83980       26.70265
C         43.69107       70.13510       27.12605
O         44.36555       70.17612       28.15009
C         43.10087       67.70943       27.74015
H         41.36484       68.88304       25.34992
H         43.53421       68.47590       25.78867
H         42.59836       66.79979       27.34491
H         44.16324       67.45429       27.94084
H         42.61548       67.98953       28.69756
N         43.52622       71.25445       26.36277
C         44.16935       72.54240       26.60073
C         43.82181       73.19532       27.93437
O         44.51311       74.12096       28.32017
C         45.70131       72.43567       26.43786
C         46.12443       71.80944       25.13793
O         47.42838       71.70883       24.84751
O         45.30318       71.39209       24.33664
H         42.93235       71.17900       25.52386
H         43.83374       73.24699       25.80632
H         46.14190       71.85476       27.27330
H         46.12810       73.46398       26.46398
N         42.73957       72.80996       28.66981
C         42.43094       73.40256       29.96574
C         42.30720       74.91028       29.91357
O         41.90552       75.45281       28.89604
H         42.11532       72.08096       28.31226
H         43.23832       73.13654       30.68244
H         41.48625       72.96974       30.36008
N         42.65308       75.64878       31.00802
C         42.64424       77.10843       31.06624
C         41.29349       77.68343       30.67140
O         41.24349       78.58373       29.84147
C         43.78868       77.70294       30.20903
C         45.12496       77.10468       30.56857
N         45.83171       76.41370       29.64494
O         45.56888       77.23825       31.69917
H         42.95491       75.14838       31.85821
H         42.84104       77.39544       32.12393
H         43.84009       78.80525       30.35506
H         43.57470       77.51285       29.13539
H         45.47194       76.30761       28.68630
H         46.73425       75.98144       29.88917
N         40.14206       77.20541       31.22469
C         38.84503       77.75799       30.86591
C         38.22852       77.09420       29.64953
O         37.03428       76.82848       29.68121
H         40.18961       76.46229       31.93818
H         38.92257       78.85546       30.71583
H         38.14770       77.63166       31.72398
N         38.97549       76.76747       28.54908
C         38.40177       76.11208       27.37666
C         38.76937       76.86447       26.10535
O         39.72258       77.63446       26.10546
C         38.92139       74.65151       27.26147
C         38.76305       73.85991       28.55870
O         38.21232       73.96999       26.25630
H         39.98517       76.94013       28.55405
H         37.29436       76.08163       27.46717
H         40.01660       74.67293       27.03613
H         38.84325       73.77090       25.52049
H         39.16523       72.83659       28.41855
H         39.34067       74.32919       29.38054
H         37.69352       73.79348       28.84601
N         38.10841       76.58534       24.94765
C         38.54669       77.06400       23.63707
C         39.41135       76.02529       22.96157
O         39.58943       74.93480       23.48856
C         37.35054       77.47262       22.71528
C         36.12677       76.51489       22.73779
C         36.91386       78.90353       23.03166
C         36.45247       75.07206       22.34494
H         37.35008       75.89340       24.99286
H         39.24084       77.92684       23.75028
H         37.69872       77.51565       21.66015
H         35.38373       76.89498       22.00423
H         35.62999       76.52193       23.73214
H         37.74962       79.59694       22.78941
H         36.05212       79.19409       22.39358
H         36.64587       79.01673       24.10082
H         37.09047       74.57896       23.10405
H         35.51244       74.48535       22.27751
H         36.96326       75.04533       21.35991
N         40.04770       76.34495       21.79757
C         40.96946       75.44866       21.12534
C         42.36318       76.03826       21.23063
O         43.09808       76.13827       20.25874
C         40.44877       75.18229       19.70989
C         41.30581       74.22950       18.93082
O         41.64843       74.50972       17.79362
O         41.68691       73.05771       19.47430
H         39.91922       77.28616       21.39984
H         41.01184       74.47254       21.66346
H         40.34536       76.13929       19.16019
H         39.43651       74.73707       19.81356
N         42.79150       76.38246       22.46769
C         44.14673       76.75449       22.82361
C         44.63354       78.13981       22.36210
O         45.74682       78.19726       21.85869
C         44.24625       76.61903       24.36102
C         45.56436       77.05289       24.91035
C         45.62058       78.17320       25.75106
C         46.73839       76.36135       24.58703
C         46.84199       78.60261       26.26008
C         47.96158       76.79110       25.10229
C         48.01359       77.91250       25.93755
H         42.11873       76.25978       23.24058
H         44.84539       75.99276       22.41036
H         44.05216       75.56122       24.64796
H         43.45098       77.21938       24.84203
H         44.71715       78.71781       26.00072
H         46.70238       75.49464       23.94267
H         46.87670       79.47188       26.90189
H         48.86752       76.25614       24.85258
H         48.96042       78.24763       26.33420
N         43.95918       79.31093       22.61079
C         42.59322       79.41578       23.07763
C         41.62647       79.61884       21.90198
O         40.43871       79.77866       22.13478
C         42.66554       80.72472       23.87468
C         43.54573       81.59733       22.97254
C         44.62294       80.60618       22.52225
H         42.25655       78.58602       23.71725
H         41.68114       81.16889       24.13593
H         43.22984       80.53077       24.81408
H         42.93788       81.88813       22.08775
H         43.93759       82.53039       23.43194
H         45.01361       80.85260       21.50973
H         45.45952       80.61319       23.25543
N         42.09983       79.75784       20.62704
C         41.31446       80.36910       19.56238
C         40.46732       79.36358       18.81994
O         40.99946       78.39562       18.29593
C         42.29938       81.09385       18.62385
C         41.64313       81.89819       17.50217
C         42.70507       82.68649       16.78916
O         43.60528       82.11206       16.19671
O         42.69373       84.03185       16.84302
H         43.11230       79.67761       20.46637
H         40.67129       81.16880       19.99535
H         43.01965       80.36598       18.18874
H         42.86835       81.81324       19.25760
H         40.90286       82.60042       17.94192
H         41.11895       81.23005       16.78427
N         39.13081       79.58438       18.66911
C         38.28567       78.70045       17.89597
H         37.28028       79.15915       17.77541
H         38.71627       78.55034       16.88258
H         38.17555       77.72279       18.40944
H         38.70915       80.43537       19.07060
Ca        47.94944       70.82828       22.84986
O         46.44506       73.17319       22.11768
H         45.52924       73.19697       22.49158
H         46.72838       74.11973       22.08827
O         49.53226       69.25340       24.78033
H         49.65128       68.60514       25.51734
H         50.40560       69.26417       24.31320
O         47.07521       70.67561       20.11869
H         47.64221       70.27570       19.41294
H         46.24575       70.95090       19.65470
O         49.51076       72.57134       21.03088
H         49.65272       72.75783       20.06999
H         50.00663       73.28828       21.49990
O         50.17633       72.01607       23.84135
H         50.08496       72.11092       24.82158
H         51.08171       72.34773       23.62757
O         49.28891       68.68384       21.59227
H         49.23780       68.00506       20.87569
H         49.53230       68.16905       22.40075
O         46.20622       68.72025       22.43328
H         45.45497       68.67047       21.79161
H         45.93689       68.14716       23.19339

Ca 1.70



