%chk=loop2.cluster6.chk
%nprocshared=48
%mem=10GB
%nosave
#b3lyp/svp scf=(tight,noincore) Test 
#IOP(5/87=12) Density=Current Pop=(MK,readradii) iop(6/33=2) iop(6/42=6)

loop2.cluster6 

   -2  1 
C         48.38892       42.70388        8.08578
C         47.74673       43.46326        6.97466
O         48.03322       44.64413        6.83153
H         49.22098       43.30726        8.50665
H         47.63987       42.54789        8.89132
H         48.78534       41.73756        7.72258
N         46.84128       42.90177        6.13261
C         46.50164       41.47245        6.04310
C         46.07249       40.75232        7.30800
O         45.26998       41.26582        8.06105
C         45.38539       41.28303        4.99816
C         44.23618       42.25180        5.12337
O         43.68814       42.56815        4.08506
O         44.11504       43.06968        6.20518
H         46.41986       43.53854        5.43539
H         47.38724       40.92470        5.65878
H         45.00850       40.23642        4.95348
H         45.84759       41.49201        4.00809
N         46.45142       39.44562        7.48649
C         45.84804       38.55726        8.47594
C         44.37811       38.38541        8.12121
O         44.10911       37.80404        7.07825
C         46.15444       38.99070        9.91308
H         47.11328       39.02496        6.81730
H         46.30796       37.54767        8.37784
H         45.71356       38.25128       10.61700
H         47.25443       38.99672       10.06798
H         45.75886       39.99363       10.15213
N         43.37024       38.90235        8.88504
C         41.97906       38.84806        8.44006
C         41.81600       39.59161        7.13535
O         42.29312       40.68983        7.04710
C         41.00620       39.33280        9.53728
C         41.15134       40.64848       10.29496
O         41.95698       41.69041        9.95607
O         40.45968       40.77904       11.29286
H         43.59090       39.39124        9.76413
H         41.69461       37.78618        8.26616
H         41.08201       38.55024       10.32446
H         39.96717       39.27498        9.14077
N         41.23710       39.01622        6.04504
C         41.12486       39.68026        4.74379
C         40.09407       40.80930        4.68936
O         39.08171       40.64869        4.02369
H         40.91116       38.04147        6.11895
H         40.78752       38.90726        4.02025
H         42.12072       40.03407        4.39730
N         40.29297       41.98523        5.34811
C         39.35163       43.10258        5.35664
C         40.09746       44.42849        5.16332
O         39.58530       45.47544        5.53548
C         38.57174       43.04617        6.69475
C         39.39618       43.16235        7.95636
N         38.81189       43.00345        9.16468
O         40.58784       43.39741        7.89623
H         41.14913       42.11463        5.88261
H         38.58727       43.00471        4.55701
H         38.05513       42.06196        6.72349
H         37.79748       43.84111        6.71124
H         37.80558       42.79814        9.23606
H         39.37274       43.07411       10.02708
N         41.35794       44.42780        4.64114
C         42.23873       45.58056        4.61257
C         42.49186       46.07555        6.02425
O         42.47004       45.26573        6.93855
H         41.72137       43.55445        4.27112
H         41.82506       46.34055        3.93109
H         43.21919       45.27674        4.18505
N         42.71087       47.38376        6.32381
C         42.76794       48.45077        5.32875
C         43.69974       49.60289        5.76718
O         43.76523       50.60447        5.06830
C         41.30711       48.86614        4.97766
C         40.54613       49.53430        6.12612
O         41.25866       49.63632        3.80264
H         42.74076       47.62688        7.32319
H         43.23121       48.05482        4.39845
H         40.72547       47.94927        4.75934
H         41.53547       50.56026        4.02100
H         40.99523       50.51590        6.37618
H         39.48840       49.68616        5.81933
H         40.55269       48.88452        7.02674
N         44.46866       49.51537        6.90253
C         45.35635       50.55970        7.40097
C         44.67653       51.92169        7.50301
O         44.93357       52.77646        6.66833
C         46.76609       50.54639        6.73941
C         47.38419       49.12640        6.91653
C         47.66891       51.59949        7.43483
C         48.75519       48.92873        6.27342
H         44.46384       48.65629        7.46089
H         45.62197       50.28471        8.44283
H         46.67463       50.79197        5.65936
H         46.71223       48.36421        6.46843
H         47.47663       48.90304        8.00358
H         47.25243       52.62236        7.35537
H         47.77576       51.36538        8.51783
H         48.67482       51.64807        6.97886
H         48.68279       49.04749        5.17309
H         49.51057       49.62979        6.67914
H         49.10792       47.89935        6.49971
N         43.86871       52.24693        8.55661
C         43.40315       51.28401        9.55095
C         44.22408       51.22468       10.83749
O         45.03321       50.31877       10.96424
C         41.87400       51.36458        9.79778
C         41.26910       52.70002       10.19444
O         39.96621       52.75291       10.52337
O         41.92284       53.73109       10.20038
H         43.55192       53.22303        8.62023
H         43.52041       50.26004        9.14187
H         41.63560       50.62541       10.59469
H         41.34801       51.04846        8.87446
N         43.91769       52.01722       11.90383
C         44.38079       51.72257       13.25204
C         43.14461       51.41200       14.11237
O         42.21053       52.19348       14.08068
C         45.19572       52.88223       13.84803
C         44.41538       54.14570       14.10237
C         44.24703       55.10577       13.09200
C         43.86163       54.37455       15.37395
C         43.53499       56.28116       13.35620
C         43.14287       55.54247       15.62905
C         42.98196       56.49753       14.62281
H         43.24472       52.77352       11.80348
H         45.08493       50.87514       13.25014
H         46.09059       53.09792       13.22530
H         45.58744       52.51668       14.82373
H         44.67503       54.94841       12.10950
H         43.97926       53.63959       16.16151
H         43.41305       57.02574       12.58066
H         42.71309       55.70633       16.60860
H         42.42984       57.40541       14.82598
N         43.07882       50.31645       14.94131
C         44.16244       49.38715       15.17378
C         44.52774       48.50274       13.99773
O         43.87943       48.56137       12.96008
C         43.62979       48.51731       16.32306
C         42.72934       49.48848       17.06677
C         42.00709       50.17080       15.90866
H         45.04058       49.98307       15.51184
H         42.95562       47.73033       15.91062
H         44.41728       48.02613       16.93210
H         42.05741       49.02701       17.82136
H         43.37979       50.23915       17.57184
H         41.22622       49.50281       15.48258
H         41.56261       51.13042       16.25097
N         45.58100       47.65034       14.11194
C         46.00480       46.73197       13.05738
C         47.34848       46.10453       13.44654
O         47.41902       44.89562       13.61255
C         44.89645       45.67124       12.77059
C         44.37724       44.93951       14.03011
C         43.29422       43.94662       13.70870
O         42.23715       44.32209       13.23018
O         43.46974       42.64071       13.98892
H         46.11546       47.66363       14.99665
H         46.18055       47.28635       12.10970
H         45.29453       44.93817       12.03583
H         44.03402       46.17331       12.28604
H         43.95165       45.67376       14.74490
H         45.20521       44.40340       14.53299
N         48.47974       46.85324       13.63475
C         48.58158       48.28369       13.40449
H         49.44489       48.47974       12.73168
H         47.68602       48.72617       12.92969
H         48.77081       48.80060       14.36772
H         49.33345       46.37242       13.95768
Ca        43.12546       42.66162        8.24190
O         44.96806       45.23499        8.41603
H         45.92650       45.14941        8.19451
H         44.82125       46.21113        8.48292
O         44.83520       42.58068       10.73641
H         44.45127       42.62737       11.64447
H         45.77020       42.29440       10.88413
O         42.06775       45.20986        9.95192
H         42.08633       45.00383       10.91666
H         41.10785       45.34505        9.75430

Ca 1.70



