%chk=loop1.cluster19.chk
%nprocshared=48
%mem=10GB
%nosave
#b3lyp/svp scf=(tight,noincore) Test 
#IOP(5/87=12) Density=Current Pop=(MK,readradii) iop(6/33=2) iop(6/42=6)

loop1.cluster19 

   0  1 
C         57.41564       39.12927       29.69120
C         58.37438       38.17606       29.07294
O         58.13125       36.97953       29.08355
H         56.51638       38.59048       30.05235
H         57.91923       39.62690       30.54578
H         57.11900       39.88901       28.93864
N         59.49886       38.64840       28.48406
C         60.47479       37.76101       27.89235
C         61.21274       37.02309       29.00545
O         62.06954       37.62080       29.64418
C         61.43615       38.60901       27.06273
C         62.41673       37.80619       26.31922
O         63.26191       38.38842       25.69490
O         62.37624       36.46567       26.30578
H         59.63955       39.67020       28.42940
H         59.94826       37.06286       27.20159
H         61.98746       39.31141       27.72634
H         60.87489       39.21106       26.31355
N         60.88898       35.73756       29.33324
C         61.46510       35.06469       30.49599
C         62.69807       34.24035       30.18086
O         63.48715       34.01232       31.08783
C         60.42311       34.21711       31.22526
C         59.31737       35.09265       31.82334
C         58.47833       34.27669       32.80046
C         57.34706       35.11325       33.40492
N         56.82494       34.46715       34.60894
H         60.10047       35.29130       28.85200
H         61.81370       35.83932       31.21548
H         60.94102       33.68872       32.05341
H         59.98612       33.45440       30.53974
H         58.69365       35.53450       31.02197
H         59.78345       35.91931       32.40621
H         59.16176       33.94244       33.61086
H         58.04465       33.37844       32.30618
H         56.54657       35.23446       32.64051
H         57.71094       36.12676       33.68673
H         55.91913       34.91123       34.87937
H         56.68147       33.44257       34.45771
H         57.51046       34.60621       35.38873
N         62.98125       33.83599       28.91387
C         64.31808       33.37295       28.54213
C         65.17756       34.56880       28.11735
O         66.36979       34.38818       27.91336
C         64.28598       32.24208       27.48161
C         63.25734       32.47740       26.41801
O         62.44189       31.61007       26.15829
O         63.17116       33.69535       25.85602
H         62.31803       34.08433       28.16879
H         64.84955       32.95512       29.42598
H         64.05575       31.26832       27.96563
H         65.29525       32.14813       27.02249
N         64.65983       35.83553       28.05058
C         65.48190       37.01836       27.83979
C         66.15623       37.11889       26.47893
O         67.05028       37.93988       26.33395
H         63.66729       35.98979       28.24699
H         66.24664       37.03419       28.64400
H         64.85539       37.92830       27.97088
N         65.77925       36.33158       25.43186
C         66.44645       36.35032       24.11881
C         66.32458       37.63841       23.28736
O         66.96158       37.71450       22.24752
C         65.96774       35.14532       23.26755
C         64.48215       34.94111       23.13730
O         63.59720       35.79881       23.66245
O         64.07205       33.88834       22.67617
H         65.02525       35.65162       25.59678
H         67.53264       36.19499       24.29857
H         66.33479       34.23692       23.78746
H         66.41552       35.16550       22.25201
N         65.51463       38.66349       23.66096
C         65.27213       39.85627       22.85539
C         63.83188       39.96330       22.36075
O         63.54226       40.90839       21.63621
H         65.04013       38.59351       24.54057
H         65.92071       39.86109       21.95450
H         65.51993       40.75263       23.46086
N         62.88569       39.02127       22.65276
C         61.59945       38.94582       21.95544
C         60.48246       38.36392       22.82377
O         60.75377       37.72674       23.83534
C         61.76799       38.08776       20.65251
C         62.13814       38.93421       19.44500
O         62.79030       37.13144       20.78164
H         63.15752       38.22015       23.23556
H         61.23461       39.96905       21.71447
H         60.81141       37.58476       20.38221
H         62.73466       36.73855       21.68182
H         63.09022       39.47201       19.61429
H         62.27343       38.26462       18.56669
H         61.32286       39.65099       19.21857
N         59.17546       38.57306       22.47089
C         58.02647       38.06512       23.21776
C         57.23095       37.12972       22.31408
O         56.80236       37.54650       21.24295
C         57.13046       39.23185       23.76520
C         57.94692       40.18171       24.68707
C         55.89556       38.63981       24.48787
C         57.13242       41.37355       25.21838
H         58.98245       39.13525       21.62474
H         58.36718       37.49105       24.10929
H         56.75969       39.85688       22.92214
H         58.77753       40.61059       24.08569
H         58.38686       39.63327       25.54776
H         56.19105       37.84238       25.20149
H         55.30267       39.39527       25.03657
H         55.20171       38.20716       23.73666
H         56.63695       41.91393       24.38298
H         56.36412       41.05379       25.95114
H         57.80025       42.08540       25.74754
N         56.94836       35.85826       22.71939
C         56.14500       34.91156       21.95624
C         54.75781       34.81870       22.52099
O         54.44711       35.44585       23.52125
C         56.76244       33.47533       21.97666
C         58.01078       33.38577       21.12371
O         56.98730       33.03997       23.29845
H         57.23481       35.58249       23.66060
H         56.02054       35.25678       20.90539
H         56.08243       32.73162       21.51644
H         57.93513       33.20247       23.53914
H         58.71024       34.12568       21.52302
H         58.43622       32.35845       21.17645
H         57.77038       33.62081       20.06531
N         53.86001       34.02838       21.89123
C         52.50548       33.76403       22.34561
C         52.51645       33.10561       23.72557
O         51.82192       33.57417       24.61328
C         51.79858       32.88339       21.27995
C         51.63005       33.68505       19.96698
O         52.55418       31.71665       21.05139
H         54.17783       33.56757       21.02458
H         51.93334       34.71665       22.42384
H         50.78932       32.60015       21.64750
H         52.12568       31.21703       20.30927
H         50.98940       34.57432       20.14537
H         52.59962       34.04068       19.55779
H         51.14920       33.06056       19.18689
N         53.32292       32.03428       23.97649
C         53.41533       31.38606       25.29106
C         53.83681       32.35785       26.37413
O         53.21230       32.38235       27.42737
C         54.38997       30.18605       25.22486
C         53.73816       29.05840       24.41057
C         54.59698       27.79836       24.29489
C         53.79591       26.72408       23.54025
N         54.58842       25.52092       23.30397
H         53.92135       31.68734       23.21340
H         52.42221       30.98444       25.59114
H         54.57550       29.79620       26.25034
H         55.36778       30.49648       24.79007
H         53.50522       29.41794       23.38588
H         52.78476       28.78363       24.91455
H         54.85923       27.41669       25.30719
H         55.53350       28.03876       23.74715
H         53.45644       27.12655       22.55950
H         52.89355       26.46170       24.13838
H         53.97046       24.79123       22.87973
H         55.36253       25.73649       22.63473
H         54.98048       25.15639       24.20165
N         54.87081       33.21266       26.17499
C         55.29569       34.19352       27.17228
C         54.13312       35.10570       27.55166
O         53.87187       35.26724       28.73541
C         56.54918       34.93924       26.65958
C         57.73025       33.93620       26.60020
C         59.00460       34.48933       26.03634
O         59.04092       34.93713       24.90754
O         60.14349       34.39306       26.73585
H         55.34665       33.18772       25.26066
H         55.60683       33.67462       28.10664
H         56.81889       35.76548       27.34553
H         56.33075       35.37975       25.66693
H         57.45924       33.05943       25.98072
H         57.93319       33.56770       27.63027
N         53.34317       35.67212       26.60036
C         52.14035       36.40648       26.93332
H         51.36914       35.70150       27.31571
H         52.34931       37.18361       27.69654
H         51.73353       36.89555       26.02228
H         53.55848       35.52526       25.61420
Ca        61.80440       34.70665       24.36825
O         60.98155       34.78738       21.41373
H         61.77879       35.02481       20.89621
H         60.73437       33.93828       20.97898
O         60.83082       32.31250       23.58936
H         60.61656       31.77396       22.79157
H         61.10051       31.64383       24.26053

Ca 1.70



