%chk=loop1.cluster81.chk
%nprocshared=48
%mem=10GB
%nosave
#b3lyp/svp scf=(tight,noincore) Test 
#IOP(5/87=12) Density=Current Pop=(MK,readradii) iop(6/33=2) iop(6/42=6)

loop1.cluster81 

   0  1 
C         35.52196       86.57284      122.14434
C         36.24729       86.16118      123.39022
O         36.85218       85.10023      123.42336
H         34.50860       86.95032      122.40141
H         36.08795       87.39573      121.65806
H         35.42499       85.72395      121.43785
N         36.19414       86.96836      124.47830
C         36.88340       86.69140      125.73191
C         35.88208       86.36922      126.83472
O         36.24990       86.42493      128.00253
C         37.82957       87.88120      126.06746
C         37.21585       89.25233      126.11264
O         37.29088       89.98204      127.24310
O         36.74693       89.75161      125.10051
H         35.59246       87.80317      124.42807
H         37.54443       85.80191      125.65875
H         38.61924       87.93135      125.28977
H         38.32346       87.68956      127.04322
N         34.58615       86.02905      126.53390
C         33.54082       85.90292      127.54077
C         32.60888       84.71291      127.21755
O         31.69499       84.91342      126.42891
C         32.72856       87.21986      127.46455
C         33.60658       88.47641      127.64621
C         32.74015       89.73607      127.62735
C         33.54016       91.04309      127.75322
N         34.29631       91.35316      126.53985
H         34.28984       85.98852      125.54854
H         33.95174       85.84903      128.57121
H         31.92651       87.19684      128.23193
H         32.25551       87.30444      126.45817
H         34.34752       88.53909      126.82121
H         34.14802       88.41519      128.61471
H         32.04610       89.66962      128.49002
H         32.13585       89.77659      126.69393
H         34.22254       91.00499      128.63395
H         32.80974       91.86048      127.91774
H         34.58295       92.35868      126.54943
H         35.15209       90.77840      126.52238
H         33.73773       91.16657      125.67561
N         32.72226       83.44525      127.73642
C         33.68192       82.95226      128.71979
C         33.39262       83.57138      130.08757
O         32.56190       84.46668      130.16401
C         35.14457       83.07646      128.19790
C         35.36519       82.45717      126.83714
O         36.42908       82.62807      126.26289
O         34.41213       81.70660      126.25105
H         32.03496       82.74888      127.40514
H         33.46175       81.87549      128.84810
H         35.88821       82.61509      128.87185
H         35.41156       84.13218      128.14379
N         33.98534       83.15105      131.23984
C         34.97520       82.09726      131.32582
C         36.34025       82.72981      131.50695
O         36.43689       83.94746      131.49000
H         33.75372       83.64604      132.11511
H         34.96884       81.43442      130.44096
H         34.71836       81.44992      132.19415
N         37.46006       81.98725      131.71212
C         37.46825       80.53908      131.79678
C         38.60974       79.98225      130.96578
O         39.73150       80.46222      131.08646
C         37.60522       80.14611      133.27363
C         37.37846       78.67358      133.46826
O         36.29795       78.17853      133.18366
O         38.35560       77.89820      133.97048
H         38.34240       82.49233      131.89707
H         36.50929       80.10409      131.44663
H         36.82632       80.67823      133.86502
H         38.60074       80.45535      133.65803
N         38.40988       78.91613      130.14610
C         39.48570       78.30242      129.38649
C         39.94589       79.13282      128.21378
O         39.42476       80.21212      127.97238
H         37.48216       78.46708      130.13003
H         39.13050       77.33339      128.97795
H         40.34851       78.09929      130.05834
N         40.94027       78.64934      127.42049
C         41.45182       79.38159      126.26634
C         40.68237       79.05940      125.01113
O         39.97911       78.06315      124.96604
C         42.95816       79.11414      126.03972
C         43.28141       77.61561      125.83659
O         43.67348       79.62385      127.13352
H         41.33886       77.73197      127.65660
H         41.31062       80.47135      126.44037
H         43.25840       79.66616      125.12025
H         44.63179       79.42266      126.97956
H         42.61403       77.14646      125.08293
H         44.32692       77.50278      125.48513
H         43.19624       77.05378      126.78940
N         40.83348       79.86392      123.91960
C         40.16200       79.62581      122.65588
C         41.16882       79.12902      121.64684
O         42.01377       79.88197      121.18557
C         39.36293       80.87900      122.13899
C         38.81894       80.61577      120.70131
C         40.17483       82.18917      122.20747
C         37.94566       81.72336      120.11813
H         41.49129       80.65129      123.98226
H         39.40974       78.81599      122.77515
H         38.50088       81.02781      122.81845
H         38.18937       79.70574      120.72940
H         39.66076       80.45331      119.99088
H         40.44145       82.42229      123.25774
H         41.09405       82.14621      121.59196
H         39.56603       83.05337      121.87860
H         38.51376       82.66595      119.98910
H         37.59650       81.41448      119.10874
H         37.06379       81.89358      120.76786
N         41.06564       77.84928      121.21026
C         41.69753       77.35975      120.00134
C         40.58591       76.90904      119.03413
O         40.87771       76.25962      118.04118
C         42.74395       76.27034      120.37066
C         42.15890       75.03662      121.06348
O         43.71420       76.81898      121.22989
H         40.40915       77.21154      121.69048
H         42.26619       78.16162      119.48179
H         43.24462       75.92019      119.43995
H         44.13543       77.58553      120.76016
H         41.40759       74.53632      120.42066
H         42.97962       74.31437      121.26973
H         41.69894       75.30582      122.03727
N         39.27163       77.25171      119.28429
C         38.09122       76.79545      118.56243
C         37.89937       75.31649      118.77560
O         38.81668       74.63786      119.23546
C         38.06662       77.19923      117.05594
C         38.17822       78.72153      116.88362
O         36.86690       76.75305      116.46502
H         39.06274       77.85128      120.08387
H         37.21370       77.28086      119.05224
H         38.91910       76.70676      116.54380
H         36.76247       77.17268      115.57208
H         38.27642       78.96081      115.80202
H         37.26305       79.22041      117.27008
H         39.06788       79.12266      117.40777
N         36.71458       74.73624      118.45729
C         36.51521       73.31165      118.47258
C         35.36788       72.73314      119.32470
O         35.45299       71.53172      119.53011
C         36.38480       72.82803      117.01320
C         37.68579       72.99601      116.18821
C         37.51645       72.32368      114.80933
C         38.83603       71.96917      114.09672
N         39.60950       73.12716      113.65440
H         35.97580       75.32944      118.08370
H         37.42122       72.81593      118.89231
H         35.54041       73.35247      116.51426
H         36.15701       71.74212      117.03827
H         38.49522       72.47392      116.74212
H         37.98029       74.06417      116.07279
H         36.84493       72.92952      114.16227
H         37.03090       71.33944      114.97755
H         38.59085       71.34858      113.20524
H         39.45270       71.34269      114.77877
H         39.10460       73.62017      112.88297
H         39.79748       73.78024      114.44653
H         40.52512       72.78241      113.28058
N         34.25113       73.36275      119.83867
C         33.75740       74.73738      119.76408
C         33.57868       75.26073      118.35890
O         33.85904       76.42241      118.10049
C         34.44035       75.68174      120.77562
C         34.28754       75.10540      122.19464
C         34.89469       75.98212      123.23792
O         35.80325       75.56062      123.93650
O         34.37161       77.20715      123.45363
H         33.60956       72.73062      120.34738
H         32.70366       74.68762      120.12675
H         33.93979       76.67768      120.74275
H         35.51135       75.81781      120.53181
H         34.75906       74.10173      122.23816
H         33.20862       74.99652      122.44889
N         33.07299       74.44504      117.39538
C         32.83863       74.92159      116.05163
H         32.06571       75.71846      116.07241
H         33.77866       75.32283      115.61649
H         32.47615       74.08571      115.41758
H         32.85748       73.46309      117.61813
Ca        34.83029       78.55329      125.21462
O         32.47806       79.88699      124.33307
H         31.99191       80.50547      124.93354
H         31.80079       79.22302      124.04971
O         35.50647       80.65834      123.56707
H         35.35334       81.63032      123.47575
H         36.34480       80.48447      123.07471
O         33.73143       79.16346      128.37156
H         34.30141       79.94997      128.18908
H         32.81009       79.47865      128.19409
O         35.45855       76.65658      127.08833
H         35.03733       76.11034      127.79591
H         36.29803       76.18864      126.85422
O         37.35616       78.36476      124.28512
H         37.63138       78.13335      125.20597
H         37.24562       77.49128      123.84030
O         36.60947       79.32295      127.27458
H         36.65360       78.68824      128.03017
H         36.97210       80.16717      127.63501
O         32.73427       76.96511      126.04017
H         31.75353       77.06857      126.10528
H         32.89463       75.98849      126.03601

Ca 1.70



