%chk=loop4.cluster132.chk
%nprocshared=48
%mem=10GB
%nosave
#b3lyp/svp scf=(tight,noincore) Test 
#IOP(5/87=12) Density=Current Pop=(MK,readradii) iop(6/33=2) iop(6/42=6)

loop4.cluster132 

   -3  1 
C         66.93391       23.47255       62.94459
C         67.46602       23.01523       64.27023
O         67.82573       23.85228       65.08358
H         66.04214       24.11412       63.10258
H         67.71691       24.05507       62.41527
H         66.64439       22.61103       62.30765
N         67.54619       21.68042       64.55443
C         68.09152       21.14649       65.80694
C         67.21869       21.47951       67.01862
O         67.61217       21.17049       68.13892
C         69.56020       21.59846       66.00144
C         70.33157       21.51474       64.71243
O         70.81160       22.52783       64.22903
O         70.41965       20.36095       64.03198
H         67.24097       21.00173       63.84197
H         68.10989       20.03725       65.71603
H         70.04638       20.97421       66.78233
H         69.59384       22.65321       66.34483
N         66.00656       22.09152       66.86890
C         65.12684       22.45280       67.97724
C         64.66957       21.20195       68.70280
O         64.29557       20.24736       68.03574
C         63.92884       23.29236       67.43763
C         64.49775       24.67118       67.00529
C         62.79485       23.44762       68.47222
C         63.49766       25.58147       66.30955
H         65.67538       22.30384       65.91757
H         65.70544       23.10037       68.65728
H         63.48428       22.76771       66.56098
H         65.33243       24.51800       66.29064
H         64.91039       25.20045       67.89403
H         62.36505       22.45341       68.72413
H         63.15540       23.93236       69.39870
H         61.95691       24.04508       68.06301
H         64.03011       26.49626       65.97236
H         63.07174       25.06726       65.42344
H         62.68830       25.89101       66.99952
N         64.68239       21.09136       70.06511
C         64.96198       22.17660       71.01782
C         66.35065       22.06579       71.62131
O         66.96212       23.09564       71.87457
C         63.85033       22.30099       72.09162
C         63.33078       20.98346       72.60573
O         62.14355       20.71609       72.49434
O         64.16537       20.08312       73.15575
H         64.45083       20.16501       70.45477
H         64.95977       23.17621       70.54762
H         62.98356       22.84157       71.65033
H         64.22148       22.92006       72.93824
N         66.93744       20.85661       71.82893
C         68.30483       20.70991       72.30044
C         68.53692       21.32768       73.65825
O         67.80267       21.03892       74.59173
H         66.41732       19.99946       71.60366
H         68.99811       21.15989       71.55523
H         68.53566       19.62942       72.37081
N         69.56947       22.20429       73.81878
C         69.86949       22.89187       75.06814
C         69.40795       24.34426       74.95889
O         69.25613       25.00093       75.98115
C         71.39435       22.78705       75.29927
C         71.91498       23.23217       76.63731
O         73.12009       23.23704       76.83543
O         71.07830       23.57665       77.63343
H         70.16044       22.41804       73.00255
H         69.30667       22.40722       75.89925
H         71.89148       23.38773       74.50510
H         71.70838       21.72812       75.17302
N         69.10756       24.89450       73.74080
C         68.49212       26.19501       73.58255
C         69.33645       27.38330       73.99427
O         68.81743       28.48937       73.93235
H         69.25087       24.35360       72.87847
H         67.53024       26.19431       74.13429
H         68.25300       26.33445       72.50203
N         70.66345       27.26584       74.32940
C         71.53189       28.41823       74.60617
C         71.73819       29.34775       73.41042
O         72.47786       30.31313       73.53769
C         71.09985       29.17417       75.88594
C         71.59088       28.41962       77.13267
C         71.33027       29.16548       78.41651
N         71.21951       28.48847       79.58119
O         71.27577       30.38711       78.42010
H         71.09984       26.33383       74.33924
H         72.56357       28.04665       74.78416
H         70.00239       29.35017       75.92102
H         71.59661       30.16671       75.90716
H         72.69574       28.30311       77.05946
H         71.15109       27.40025       77.17466
H         71.28963       27.46063       79.59831
H         71.06901       28.99632       80.46508
N         71.17586       29.08121       72.20136
C         71.45342       29.86715       71.01174
C         72.86971       29.64529       70.51859
O         73.18300       28.57742       70.01355
C         70.44194       29.55968       69.85657
C         70.14052       28.05493       69.63315
C         69.13984       30.32610       70.10085
H         70.56089       28.28150       72.11537
H         71.34755       30.94768       71.26069
H         70.86538       29.95715       68.90606
H         69.53199       27.61451       70.45046
H         69.53515       27.92204       68.71489
H         71.06582       27.45607       69.52259
H         68.38885       30.08514       69.32088
H         68.72619       30.09147       71.10392
H         69.34815       31.41801       70.04778
N         73.76013       30.67311       70.56185
C         74.97663       30.66807       69.75920
C         74.59581       30.91621       68.31218
O         73.44415       31.20009       68.01698
C         75.89444       31.82874       70.20008
C         76.53397       31.54654       71.52682
N         77.60630       30.72329       71.59596
O         76.11298       32.08917       72.53679
H         73.49318       31.54399       71.04360
H         75.51014       29.69474       69.84943
H         75.29116       32.76306       70.24074
H         76.71847       32.02034       69.47943
H         77.99480       30.30027       70.73885
H         78.07061       30.54215       72.49720
N         75.55887       30.87392       67.35666
C         75.31316       31.32410       65.99914
C         76.24988       30.61318       65.04270
O         77.45829       30.63818       65.22054
C         75.47546       32.85029       65.91674
C         75.59725       33.27767       64.47471
C         74.54501       33.08346       63.56248
C         76.81910       33.79583       64.02254
C         74.72528       33.39934       62.21161
C         76.99745       34.10476       62.67708
C         75.95262       33.90513       61.76494
O         76.12458       34.18790       60.45881
H         76.52195       30.63567       67.63279
H         74.27064       31.08441       65.69492
H         76.40431       33.12567       66.46054
H         74.62619       33.36024       66.42396
H         73.60011       32.66824       63.89207
H         77.64487       33.92913       64.71077
H         73.91799       33.23682       61.50902
H         77.95400       34.48465       62.34319
H         76.96718       34.52592       60.12237
N         75.70588       29.96711       63.97895
C         76.46700       29.17214       63.03564
C         76.32123       29.63344       61.57326
O         77.35161       29.99691       61.01887
C         76.10310       27.68985       63.22706
C         76.86706       26.99593       64.37280
C         76.54837       27.48490       65.75677
O         75.40958       27.41013       66.18885
O         77.53517       27.94300       66.55201
H         74.69152       30.00385       63.87975
H         77.55752       29.25827       63.24589
H         76.39947       27.13970       62.30992
H         75.00915       27.57954       63.38274
H         77.95861       27.10125       64.18515
H         76.61957       25.91530       64.33755
N         75.17806       29.59957       60.81029
C         73.82284       29.21829       61.21563
C         72.79073       30.13258       60.54587
O         73.15666       30.99639       59.76039
C         73.53738       27.73953       60.85736
C         73.79273       27.39036       59.38900
C         73.35646       25.98420       59.11310
O         74.15991       25.14882       58.73022
O         72.06385       25.64699       59.27363
H         75.29950       29.83169       59.81063
H         73.67032       29.31688       62.29059
H         72.48714       27.50167       61.12633
H         74.16271       27.06536       61.46626
H         74.87764       27.50068       59.16991
H         73.21549       28.06385       58.72483
N         71.45900       29.94518       60.78547
C         70.42081       30.68919       60.09924
H         69.69470       31.09020       60.83644
H         70.81824       31.53139       59.49527
H         69.88432       29.99387       59.41887
H         71.16040       29.21004       61.43996
Ca        71.20043       20.56985       61.93479
O         72.66549       18.33029       61.79905
H         73.64136       18.18091       61.74941
H         72.28368       17.48511       62.14233
O         70.87044       22.98761       60.50009
H         70.07707       23.40102       60.07758
H         71.64522       23.35993       60.01183
O         72.70040       20.49078       59.41544
H         72.05109       19.88628       58.97548
H         72.77539       21.26537       58.80390
O         73.98299       21.12971       62.80217
H         74.71727       21.65001       62.39007
H         74.42867       20.34368       63.20690

Ca 1.70



