%chk=loop2.cluster58.chk
%nprocshared=48
%mem=10GB
%nosave
#b3lyp/svp scf=(tight,noincore) Test 
#IOP(5/87=12) Density=Current Pop=(MK,readradii) iop(6/33=2) iop(6/42=6)

loop2.cluster58 

   -2  1 
C         80.58933       48.84885       59.60775
C         79.31164       48.92882       58.82640
O         78.40965       48.14167       59.07627
H         81.34067       49.57049       59.22250
H         80.39146       49.07604       60.67560
H         81.01227       47.82617       59.52075
N         79.15360       49.88759       57.87209
C         77.95246       50.00493       57.05887
C         77.06111       51.08429       57.62524
O         77.52031       52.18433       57.90078
C         78.31757       50.31278       55.60133
C         79.21984       49.25650       55.03118
O         78.83133       48.10377       54.92605
O         80.46876       49.57893       54.64604
H         79.90097       50.58594       57.73803
H         77.38807       49.04344       57.05542
H         78.82877       51.29755       55.55557
H         77.39176       50.37123       54.98492
N         75.74218       50.81793       57.79753
C         74.78506       51.72537       58.41704
C         74.02824       50.92826       59.49070
O         74.27355       49.73202       59.58874
C         73.91547       52.27592       57.28097
H         75.38353       49.91396       57.44994
H         75.30355       52.57495       58.90792
H         73.06724       52.88758       57.61737
H         74.55402       52.92996       56.64447
H         73.53570       51.45111       56.64115
N         73.12303       51.45039       60.37194
C         72.63941       52.83098       60.46050
C         73.75028       53.82538       60.76554
O         74.75343       53.44579       61.35645
C         71.53912       52.90870       61.55953
C         70.45743       51.87457       61.30914
O         70.24998       50.82716       62.14149
O         69.78134       51.95545       60.29886
H         72.72254       50.77069       61.03600
H         72.15878       53.10405       59.50577
H         71.07418       53.91871       61.57219
H         71.98799       52.74348       62.56001
N         73.62162       55.13956       60.40561
C         74.68053       56.11015       60.65103
C         75.75935       56.02304       59.58483
O         75.55050       55.34649       58.58749
H         72.76067       55.45576       59.93452
H         75.11325       55.91300       61.65499
H         74.26289       57.14150       60.66490
N         76.96814       56.64873       59.71355
C         77.33782       57.50515       60.83852
C         78.37869       56.85074       61.74938
O         78.74459       57.46655       62.74172
C         77.85906       58.84947       60.29336
C         76.87972       59.55353       59.37992
N         77.33112       60.44579       58.46875
O         75.68339       59.30918       59.44536
H         77.67172       56.49931       58.97199
H         76.46235       57.71823       61.48367
H         78.78501       58.64042       59.71536
H         78.12690       59.54068       61.12226
H         78.33926       60.64260       58.38516
H         76.67448       60.91682       57.82895
N         78.86265       55.58669       61.52086
C         79.75375       54.90824       62.46147
C         79.07176       54.51674       63.77147
O         79.73524       53.97098       64.64197
H         78.59016       55.07499       60.67036
H         80.62737       55.56419       62.67577
H         80.13790       53.97631       61.99539
N         77.75492       54.79488       63.98987
C         77.08804       54.60969       65.27379
C         76.68028       53.15304       65.45241
O         76.08299       52.59750       64.54000
C         75.82483       55.51701       65.29404
C         75.18944       55.63684       66.68297
O         76.11814       56.81355       64.82562
H         77.21498       55.24794       63.24425
H         77.75129       54.96815       66.09274
H         75.09450       55.06215       64.58923
H         76.92683       57.13363       65.30959
H         75.74930       56.37962       67.29376
H         74.14550       55.99819       66.57478
H         75.18376       54.66971       67.22305
N         76.94226       52.48054       66.61279
C         76.56599       51.07555       66.81104
C         75.57338       50.86236       67.94796
O         75.34394       51.74575       68.76229
C         77.82499       50.16168       66.99433
C         78.43746       49.70952       65.64917
C         78.91710       50.82980       67.85148
C         77.53571       48.72007       64.90263
H         77.41340       52.98333       67.37971
H         75.98537       50.72232       65.93978
H         77.52894       49.22742       67.52156
H         79.37794       49.15560       65.86232
H         78.68306       50.58143       65.00517
H         79.74467       50.11284       68.03976
H         79.35430       51.70467       67.32044
H         78.51237       51.16032       68.82993
H         78.06665       48.32730       64.01170
H         77.29755       47.86523       65.56907
H         76.58812       49.17710       64.55957
N         74.92097       49.65971       68.01031
C         73.87509       49.31824       68.97197
C         73.63510       47.80505       68.98439
O         73.35938       47.22051       67.94601
C         72.53587       50.03212       68.66250
C         72.11378       49.88565       67.22896
O         72.76378       50.42750       66.35064
O         71.01025       49.18207       66.90910
H         75.14898       48.95789       67.28907
H         74.19030       49.61910       69.99454
H         72.59764       51.11659       68.88607
H         71.75193       49.59934       69.32675
N         73.68077       47.12503       70.16676
C         73.34490       45.70657       70.30771
C         74.25370       44.78067       69.50175
O         75.47090       44.88202       69.63208
C         73.41469       45.30445       71.80350
C         73.26284       43.81180       72.02251
C         74.41023       42.99679       72.03840
C         71.99852       43.21979       72.18223
C         74.29652       41.61616       72.20232
C         71.89063       41.83246       72.35082
C         73.03851       41.03310       72.35900
H         73.90032       47.65848       71.02247
H         72.28993       45.57344       70.00293
H         72.64253       45.86125       72.37900
H         74.39940       45.61169       72.21728
H         75.39247       43.43379       71.90929
H         71.10251       43.82697       72.16591
H         75.18589       40.99894       72.20386
H         70.91750       41.37446       72.46993
H         72.95445       39.96133       72.48497
N         73.73690       43.74880       68.74924
C         74.54687       42.69664       68.16114
C         75.27788       43.12346       66.90286
O         75.99409       42.31749       66.33339
C         73.50825       41.59822       67.87092
C         72.24762       42.39247       67.56726
C         72.31184       43.51709       68.58936
H         75.29108       42.29731       68.88695
H         73.79046       40.85194       67.09682
H         73.31058       41.05684       68.82306
H         72.36634       42.84057       66.55648
H         71.29563       41.81777       67.59796
H         71.76238       44.39601       68.18961
H         71.89310       43.19924       69.56252
N         75.10613       44.37211       66.39507
C         75.72192       44.79308       65.14328
C         77.20776       45.06145       65.29664
O         77.88159       45.20039       64.28254
C         75.00302       46.06152       64.64964
C         73.52040       45.75183       64.34896
C         72.71981       46.97029       64.01299
O         71.37603       46.91607       64.06800
O         73.27031       48.01348       63.70767
H         74.46822       45.01955       66.86744
H         75.57443       43.99312       64.38304
H         75.49037       46.46842       63.73879
H         75.06650       46.83051       65.45574
H         73.03825       45.29247       65.23559
H         73.43572       45.02291       63.51514
N         77.78067       45.22023       66.52589
C         79.18144       45.54140       66.70529
H         79.75444       45.51388       65.75434
H         79.26229       46.56249       67.13394
H         79.63971       44.81872       67.41168
H         77.19719       45.16878       67.37355
Ca        71.31083       50.19098       64.02517
O         68.83185       48.69495       63.86050
H         68.44383       48.23232       63.07625
H         68.54369       48.15819       64.64052
O         73.97756       50.72752       63.58946
H         74.61032       50.17453       63.07004
H         73.72691       51.45272       62.97080

Ca 1.70



