%chk=loop2.cluster9.chk
%nprocshared=48
%mem=10GB
%nosave
#b3lyp/svp scf=(tight,noincore) Test 
#IOP(5/87=12) Density=Current Pop=(MK,readradii) iop(6/33=2) iop(6/42=6)

loop2.cluster9 

   -2  1 
C         51.45670       43.98866       16.30245
C         52.66455       43.60916       15.52183
O         53.73272       44.16771       15.74269
H         50.59302       43.37063       15.98207
H         51.64332       43.78656       17.37652
H         51.21551       45.05614       16.14515
N         52.56464       42.64299       14.57450
C         53.71957       42.13711       13.89611
C         53.89017       42.83719       12.57880
O         53.06938       42.71053       11.67962
C         53.63114       40.64291       13.78572
C         54.90011       40.05686       13.36421
O         55.91828       40.70456       13.16044
O         54.90557       38.75998       13.25033
H         51.64644       42.23420       14.35547
H         54.61043       42.30384       14.53960
H         52.82014       40.31658       13.09468
H         53.43572       40.19976       14.78388
N         54.95250       43.65964       12.45125
C         55.28677       44.42569       11.27747
C         55.86107       43.50511       10.24144
O         55.53007       43.62627        9.07136
C         56.29623       45.51630       11.70896
H         55.56935       43.75287       13.25895
H         54.38509       44.92879       10.87206
H         56.58889       46.18577       10.87598
H         55.81516       46.13983       12.49704
H         57.22105       45.09034       12.15874
N         56.73247       42.53316       10.61331
C         57.30984       41.61181        9.65153
C         56.28368       40.57903        9.20496
O         56.33848       40.10367        8.08222
C         58.48762       40.84866       10.29389
C         59.47531       41.74576       10.99608
O         59.69098       41.59989       12.31248
O         60.08968       42.59956       10.38097
H         56.97773       42.43531       11.61212
H         57.70370       42.19397        8.79348
H         59.02179       40.28177        9.50376
H         58.08629       40.12718       11.03640
N         55.38302       40.11542       10.10908
C         54.55314       38.94232        9.94687
C         55.40918       37.69690        9.98764
O         55.26957       36.84525        9.12463
H         55.31897       40.59722       10.99657
H         53.93071       38.99763        9.03396
H         53.86241       38.89933       10.82283
N         56.31486       37.52847       10.99580
C         57.18941       36.36572       11.13539
C         56.75724       35.44801       12.30281
O         57.14552       34.29023       12.35427
C         58.62790       36.86647       11.33510
C         58.79963       37.38404       12.72912
N         59.36195       36.57673       13.63751
O         58.34825       38.46875       13.07025
H         56.42000       38.28748       11.67117
H         57.12044       35.76078       10.21081
H         58.93955       37.64307       10.60804
H         59.29394       35.99186       11.21133
H         59.69782       35.63949       13.37782
H         59.39652       36.87003       14.59939
N         55.97392       35.95648       13.28647
C         55.29296       35.25050       14.34625
C         55.75896       35.61797       15.73975
O         55.35019       34.94696       16.67698
H         55.82252       36.92511       13.25744
H         55.38706       34.16516       14.21342
H         54.21488       35.53120       14.27036
N         56.60003       36.66780       15.96741
C         57.02811       37.04430       17.31250
C         57.19576       38.53649       17.42590
O         57.39828       39.21651       16.42791
C         58.39233       36.42094       17.71172
C         58.33080       34.91328       17.90687
O         59.34617       36.75187       16.75363
H         56.83461       37.29078       15.18456
H         56.24148       36.74825       18.04345
H         58.72088       36.87117       18.67146
H         60.15272       36.18754       16.86278
H         57.58930       34.68733       18.69814
H         58.06445       34.41689       16.95421
H         59.33159       34.54595       18.23295
N         57.23768       39.09052       18.66792
C         57.52957       40.49540       18.88367
C         58.99986       40.68049       19.08069
O         59.65902       39.83254       19.67103
C         56.79287       41.16778       20.09725
C         55.52277       40.38991       20.49748
C         56.48905       42.65266       19.77189
C         54.71213       40.98340       21.64828
H         57.15130       38.46271       19.47354
H         57.22949       41.02264       17.96352
H         57.46296       41.14762       20.98893
H         55.84613       39.39709       20.87510
H         54.87528       40.26762       19.60875
H         57.40958       43.24262       19.59149
H         55.83582       42.71530       18.87578
H         55.97877       43.16863       20.60586
H         54.33519       42.00299       21.43151
H         53.83589       40.32475       21.83553
H         55.33091       41.01023       22.56558
N         59.55312       41.83612       18.65317
C         60.91580       42.24691       18.90783
C         60.94205       43.66684       19.45820
O         59.92889       44.33340       19.41810
C         61.69525       42.12004       17.60490
C         61.04420       42.78908       16.41157
O         61.46390       43.86497       16.02908
O         60.08192       42.16483       15.69115
H         58.96074       42.46831       18.10437
H         61.38239       41.60545       19.69382
H         61.79571       41.03850       17.37965
H         62.69389       42.56296       17.78266
N         62.05365       44.15289       20.08180
C         62.06308       45.41543       20.82470
C         61.84470       46.64737       19.95294
O         61.11801       47.53179       20.38845
C         63.34218       45.52573       21.66456
C         63.25627       46.63039       22.67644
C         64.02541       47.79500       22.54409
C         62.40675       46.48093       23.78021
C         63.97032       48.78231       23.53311
C         62.31971       47.48246       24.74322
C         63.11791       48.62548       24.63584
H         62.88545       43.54751       20.13584
H         61.22090       45.37111       21.55393
H         64.22483       45.65202       21.01857
H         63.48115       44.57616       22.22699
H         64.66428       47.93360       21.68005
H         61.82587       45.57565       23.89728
H         64.58949       49.66476       23.43984
H         61.64189       47.35771       25.57703
H         63.07414       49.38396       25.40784
N         62.42109       46.80411       18.71838
C         62.09684       47.93011       17.85041
C         60.65508       47.89536       17.30908
O         60.03777       48.94330       17.20472
C         63.15734       47.85638       16.74444
C         64.25473       46.97189       17.34065
C         63.49042       45.97932       18.19439
H         62.24456       48.86808       18.41707
H         62.73904       47.35240       15.85075
H         63.55379       48.85753       16.46117
H         64.89607       46.48462       16.57623
H         64.86912       47.60180       18.02389
H         63.07191       45.20377       17.53573
H         64.15672       45.48861       18.93157
N         60.04980       46.71667       16.97686
C         58.62542       46.60438       16.61453
C         57.72263       46.99643       17.78050
O         56.61839       47.48096       17.56573
C         58.35840       45.14721       16.20646
C         56.90459       44.72713       15.99391
C         56.94983       43.32178       15.47686
O         57.51533       43.01817       14.30208
O         56.63893       42.40968       16.21438
H         60.60972       45.85678       17.03542
H         58.41642       47.26044       15.74076
H         58.73983       44.47222       17.00058
H         58.94355       44.97625       15.27808
H         56.34438       45.42240       15.33649
H         56.40020       44.70446       16.98878
N         58.13995       46.77550       19.05065
C         57.40284       47.16518       20.22400
H         56.39562       46.70280       20.24004
H         57.96981       46.82770       21.12109
H         57.33020       48.27060       20.25320
H         59.04603       46.34285       19.19170
Ca        58.46987       41.03701       14.54444
O         60.23919       39.25390       15.65557
H         60.92422       38.63975       15.29489
H         60.15706       39.01846       16.61241

Ca 1.70



