%chk=loop2.cluster53.chk
%nprocshared=48
%mem=10GB
%nosave
#b3lyp/svp scf=(tight,noincore) Test 
#IOP(5/87=12) Density=Current Pop=(MK,readradii) iop(6/33=2) iop(6/42=6)

loop2.cluster53 

   -2  1 
C         95.75760       75.69202       46.24923
C         97.21842       75.58492       46.56197
O         97.96968       76.49365       46.23523
H         95.18233       75.93704       47.16433
H         95.59010       76.47324       45.47711
H         95.39841       74.72753       45.82985
N         97.71296       74.43954       47.10928
C         99.14532       74.21858       47.24448
C         99.65195       74.94221       48.48023
O         99.29133       74.56641       49.58805
C         99.42497       72.69938       47.24259
C        100.86679       72.31762       47.04764
O        101.82473       73.25620       46.92258
O        101.16506       71.13757       46.95230
H         97.06183       73.65867       47.28804
H         99.63130       74.61762       46.32550
H         98.87640       72.26464       46.37696
H         99.02590       72.23419       48.16979
N        100.44920       76.04109       48.35128
C        100.79906       76.89136       49.48598
C         99.64028       77.82492       49.80664
O         98.77900       78.01303       48.95826
C        102.07589       77.68191       49.15011
H        100.67325       76.37362       47.40118
H        100.98972       76.25656       50.37805
H        102.94180       76.98706       49.13259
H        101.98703       78.16734       48.15553
H        102.29872       78.48470       49.87622
N         99.50829       78.43583       51.02173
C        100.43618       78.27525       52.13973
C        100.08359       77.06956       52.98095
O         99.10422       76.39603       52.68890
C        100.46180       79.57434       52.97012
C        100.97446       80.75740       52.18886
O        101.13099       81.94103       52.80941
O        101.26215       80.65714       51.00563
H         98.68111       79.02970       51.17144
H        101.46227       78.09330       51.78597
H        101.13146       79.44961       53.84338
H         99.44032       79.80403       53.34250
N        100.88263       76.70588       54.03090
C        100.58826       75.54429       54.85302
C        100.63202       74.26694       54.03856
O        101.16847       74.28288       52.93863
H        101.71799       77.26739       54.25456
H         99.59214       75.69606       55.30262
H        101.32731       75.45750       55.68153
N        100.11118       73.09330       54.49733
C         99.42617       72.94379       55.78261
C         98.05291       73.62446       55.83304
O         97.46376       73.65998       56.90611
C         99.24184       71.44322       56.10621
C        100.56548       70.74097       56.32151
N        100.85435       70.18054       57.51894
O        101.38070       70.67445       55.41343
H        100.22458       72.26099       53.89846
H        100.06182       73.38750       56.58061
H         98.68147       70.94314       55.28441
H         98.63670       71.34320       57.03231
H        100.18131       70.22558       58.29764
H        101.75638       69.70469       57.66665
N         97.46502       74.16371       54.72475
C         96.15985       74.80458       54.76838
C         96.18631       76.06433       55.59816
O         95.40290       76.18458       56.52975
H         97.93427       74.09888       53.81143
H         95.39492       74.09385       55.15521
H         95.86138       75.08825       53.73574
N         97.03538       77.07731       55.26602
C         97.05286       78.36177       55.95228
C         96.45052       79.36225       54.99342
O         97.08311       80.35623       54.67129
C         98.50978       78.73118       56.36315
C         98.56327       79.97601       57.26249
O         99.10696       77.66197       57.04570
H         97.63985       76.96166       54.44729
H         96.41297       78.32438       56.86007
H         99.08500       78.91811       55.42751
H        100.08922       77.82002       57.00750
H         98.10514       80.86715       56.79105
H         98.03215       79.76753       58.21426
H         99.62076       80.22760       57.49160
N         95.22324       79.13098       54.44998
C         94.65501       79.96666       53.40119
C         93.81961       81.08353       53.99966
O         93.68029       81.15867       55.21754
C         93.86169       79.10778       52.35951
C         94.69371       77.95736       51.73845
C         92.55892       78.54904       52.95553
C         95.84123       78.44978       50.85994
H         94.71843       78.27906       54.73594
H         95.47508       80.46611       52.84351
H         93.56770       79.75837       51.52450
H         94.04123       77.34449       51.07766
H         95.08762       77.29566       52.53736
H         92.00811       77.96600       52.18804
H         92.74958       77.88937       53.82361
H         91.89564       79.38109       53.27314
H         96.52172       79.09681       51.43747
H         96.41375       77.57766       50.47682
H         95.45021       79.02026       49.98953
N         93.25891       82.01655       53.18947
C         92.52778       83.17630       53.67224
C         91.39327       83.53364       52.73460
O         91.62367       83.77860       51.55542
C         93.46301       84.38689       53.87065
C         94.58047       84.45998       52.88212
O         95.74308       83.84933       53.18032
O         94.49974       85.17439       51.89653
H         93.44797       81.95779       52.17943
H         92.08681       82.97573       54.67507
H         93.95949       84.28448       54.85841
H         92.89270       85.34110       53.91893
N         90.13548       83.66993       53.23439
C         89.01029       84.17492       52.46199
C         88.55574       83.18098       51.39416
O         88.34403       82.02712       51.73852
C         87.82330       84.44339       53.40996
C         86.72996       85.14451       52.65410
C         85.69557       84.41006       52.05273
C         86.78865       86.53610       52.47694
C         84.73690       85.06285       51.27420
C         85.82322       87.18524       51.70570
C         84.80134       86.44888       51.09959
H         89.99363       83.49562       54.24356
H         89.30246       85.15679       52.03430
H         88.14857       85.09378       54.25243
H         87.46277       83.48943       53.85541
H         85.65170       83.33334       52.16428
H         87.59047       87.11052       52.92556
H         83.95182       84.49265       50.79599
H         85.87686       88.25677       51.56657
H         84.06405       86.95162       50.48892
N         88.29433       83.56006       50.09761
C         87.72678       82.64539       49.11295
C         88.69678       81.57959       48.64130
O         88.30489       80.73280       47.84796
C         87.26454       83.58620       47.99266
C         88.22966       84.75682       48.09844
C         88.41890       84.91361       49.60381
H         86.83329       82.12628       49.52490
H         87.17936       83.12798       46.98267
H         86.26566       83.98145       48.28204
H         89.19900       84.42610       47.66756
H         87.90262       85.68769       47.58439
H         89.41174       85.37406       49.79448
H         87.60890       85.52359       50.05035
N         89.97037       81.53645       49.11014
C         90.92013       80.49354       48.75577
C         90.44965       79.12507       49.22592
O         90.74524       78.14256       48.56021
C         92.29761       80.84196       49.35572
C         92.82857       82.13126       48.69840
C         94.17930       82.61227       49.11977
O         94.68558       83.53541       48.50458
O         94.82673       82.12078       50.18346
H         90.28303       82.27212       49.75351
H         91.02981       80.45472       47.64730
H         93.01137       80.01499       49.14839
H         92.17650       80.97435       50.45028
H         92.14431       82.98643       48.87820
H         92.87601       81.94779       47.60791
N         89.65046       78.99445       50.32466
C         89.11413       77.71688       50.74883
H         88.06781       77.62325       50.38779
H         89.71324       76.86285       50.36826
H         89.10969       77.66701       51.85762
H         89.35512       79.83256       50.84195
Ca        96.60705       83.39278       50.70498
O         99.51141       83.74955       50.54481
H         99.89949       82.85452       50.69610
H        100.24846       84.26340       50.13585
O         98.10896       81.78771       52.24837
H         97.37082       81.76087       52.89513
H         98.70343       82.47410       52.63472
O         97.52519       81.73762       48.79900
H         98.48956       81.52670       48.74395
H         97.05847       80.94003       48.44741
O         97.52861       85.13475       48.61969
H         97.59387       85.10240       47.63300
H         97.46917       86.09794       48.83990
O         97.57682       85.88303       51.82261
H         98.49807       86.18821       51.62956
H         97.22511       86.53420       52.47946

Ca 1.70



