%chk=loop2.cluster204.chk
%nprocshared=48
%mem=10GB
%nosave
#b3lyp/svp scf=(tight,noincore) Test 
#IOP(5/87=12) Density=Current Pop=(MK,readradii) iop(6/33=2) iop(6/42=6)

loop2.cluster204 

   -2  1 
C         69.57429       39.21351       32.99849
C         68.50853       38.97276       31.96652
O         67.40024       38.59807       32.32209
H         70.50380       39.60212       32.52849
H         69.22549       39.97307       33.73055
H         69.81418       38.26892       33.52501
N         68.77518       39.22545       30.65603
C         67.77127       39.17701       29.60392
C         67.27461       40.58399       29.39336
O         67.66095       41.23742       28.43382
C         68.30153       38.52810       28.29666
C         69.53894       39.17210       27.71285
O         70.71926       39.09313       28.35594
O         69.48465       39.72804       26.62731
H         69.69875       39.61022       30.42526
H         66.88677       38.56823       29.90487
H         67.47931       38.59202       27.54633
H         68.51517       37.45258       28.46332
N         66.37331       41.11114       30.26689
C         65.83678       42.45075       30.09424
C         65.61805       43.13007       31.43644
O         65.51635       42.44044       32.44268
C         64.52618       42.34474       29.31331
H         65.98509       40.50378       31.00688
H         66.54874       43.04956       29.49797
H         64.06454       43.33395       29.13859
H         64.73389       41.88325       28.32368
H         63.79968       41.70384       29.85660
N         65.49885       44.48459       31.55830
C         65.73296       45.45162       30.48409
C         67.20068       45.48922       30.11094
O         67.99785       44.77289       30.70323
C         65.31935       46.85981       30.96624
C         63.84943       46.95446       31.18242
O         63.36202       47.15875       32.42026
O         63.09130       46.87934       30.22944
H         65.27898       44.85307       32.49005
H         65.13704       45.19806       29.58597
H         65.58146       47.64833       30.23121
H         65.83442       47.08299       31.91956
N         67.63567       46.33532       29.13335
C         69.03813       46.44374       28.79171
C         69.55342       45.16359       28.17367
O         68.75497       44.38964       27.66164
H         66.96208       46.93883       28.64033
H         69.59527       46.72219       29.70085
H         69.18974       47.26535       28.05885
N         70.88305       44.87679       28.10901
C         71.91429       45.70459       28.73089
C         71.93502       45.59121       30.25626
O         72.57164       46.42622       30.88856
C         73.31179       45.27776       28.22950
C         73.53988       45.51348       26.75556
N         74.75914       45.27286       26.22296
O         72.64164       45.93974       26.04344
H         71.17028       44.03687       27.58374
H         71.75675       46.76800       28.43850
H         73.47295       44.19815       28.45496
H         74.08350       45.86306       28.77287
H         75.52981       44.93368       26.81777
H         74.93629       45.44705       25.22304
N         71.38940       44.51913       30.91048
C         71.60679       44.29045       32.33821
C         70.86585       45.23631       33.26509
O         71.11775       45.20925       34.46040
H         70.91649       43.78199       30.36746
H         72.69889       44.38091       32.53342
H         71.30369       43.25705       32.60286
N         69.95777       46.11877       32.77899
C         69.32032       47.14285       33.59557
C         68.28549       46.52957       34.52047
O         67.34833       45.92485       34.01655
C         68.69774       48.18651       32.63430
C         68.11335       49.39285       33.36105
O         69.69974       48.63827       31.75830
H         69.76334       46.10996       31.77552
H         70.10464       47.66738       34.18066
H         67.90507       47.68314       32.04237
H         69.24195       48.98546       30.94830
H         67.73810       50.11945       32.60822
H         67.27096       49.09654       34.01807
H         68.90764       49.88315       33.96200
N         68.37548       46.65939       35.88595
C         67.37262       46.09352       36.78882
C         66.57510       47.14293       37.53114
O         66.98794       48.29293       37.63280
C         67.96305       45.09557       37.83430
C         68.67713       43.87089       37.22763
C         68.87374       45.77345       38.87694
C         67.88380       43.17944       36.11872
H         69.16408       47.18725       36.28779
H         66.62170       45.53995       36.19451
H         67.11014       44.69751       38.41193
H         68.82109       43.14540       38.06001
H         69.67455       44.14183       36.82517
H         69.23345       45.02653       39.61740
H         69.75147       46.24845       38.39525
H         68.31488       46.54604       39.44843
H         68.32866       42.18848       35.89742
H         66.82562       43.04797       36.40054
H         67.91926       43.78154       35.19218
N         65.39670       46.77093       38.09811
C         64.56046       47.62283       38.92586
C         63.95613       46.79216       40.04121
O         63.46366       45.69786       39.79001
C         63.46968       48.29217       38.07886
C         62.67511       47.30826       37.28412
O         62.85037       47.25186       35.94949
O         61.90176       46.54815       37.84032
H         65.04787       45.82086       37.88879
H         65.15147       48.46146       39.36119
H         63.97737       48.97787       37.36860
H         62.79378       48.90874       38.71456
N         63.91288       47.27456       41.30366
C         63.29446       46.54237       42.39897
C         64.04995       45.23653       42.69162
O         65.26819       45.29041       42.82502
C         63.26098       47.45241       43.64624
C         62.78659       46.70516       44.86202
C         63.73325       46.09399       45.69866
C         61.41813       46.56311       45.14244
C         63.32075       45.33983       46.79466
C         61.00823       45.80971       46.24809
C         61.95943       45.19571       47.07037
H         64.29283       48.21982       41.47924
H         62.24142       46.33517       42.12604
H         62.61039       48.33569       43.45261
H         64.28063       47.84830       43.84474
H         64.79095       46.18691       45.48326
H         60.67526       47.02188       44.50087
H         64.05892       44.86044       47.42333
H         59.95429       45.69190       46.46196
H         61.64300       44.60345       47.91781
N         63.40058       44.03417       42.89538
C         64.08936       42.82363       43.31871
C         64.85959       42.13107       42.20814
O         65.40758       41.06652       42.45415
C         62.95045       41.85922       43.71091
C         61.74343       42.75524       43.89952
C         61.96264       43.87484       42.89156
H         64.71892       43.06567       44.20607
H         62.69272       41.19978       42.85181
H         63.18628       41.21213       44.58601
H         60.76865       42.22909       43.79154
H         61.81449       43.19499       44.91396
H         61.66246       43.57188       41.86540
H         61.38073       44.74594       43.23577
N         64.83747       42.61299       40.92986
C         65.36657       41.84308       39.81025
C         66.86514       41.58641       39.89559
O         67.36759       40.83870       39.06553
C         64.98559       42.49897       38.46991
C         63.47282       42.46283       38.21458
C         63.15143       42.92757       36.83172
O         62.30835       43.95647       36.64509
O         63.62021       42.34255       35.86886
H         64.35684       43.49601       40.72912
H         64.87967       40.84248       39.82146
H         65.46659       41.91360       37.66210
H         65.33704       43.54458       38.43313
H         62.92918       43.08762       38.95451
H         63.11443       41.41694       38.29401
N         67.63626       42.11272       40.89211
C         69.03001       41.76573       41.06872
H         69.64512       42.68684       41.05492
H         69.14733       41.26642       42.05474
H         69.40378       41.07052       40.28812
H         67.22742       42.75780       41.58052
Ca        61.81890       45.78022       34.58578
O         60.50712       45.88794       32.08283
H         61.18287       46.05885       31.38610
H         60.34442       46.77622       32.48810
O         59.31830       46.12593       35.91036
H         60.12378       45.92087       36.43976
H         58.58102       45.94912       36.54225
O         62.18306       43.07395       33.15940
H         63.05751       43.21479       33.59533
H         62.17377       42.10735       32.95087
O         64.41130       44.95712       34.74713
H         64.96697       45.76071       34.60458
H         65.04818       44.21469       34.89045
O         59.32610       43.87287       34.01000
H         59.01039       43.68323       34.92893
H         58.54949       44.29221       33.56116

Ca 1.70



