%chk=loop1.cluster6.chk
%nprocshared=48
%mem=10GB
%nosave
#b3lyp/svp scf=(tight,noincore) Test 
#IOP(5/87=12) Density=Current Pop=(MK,readradii) iop(6/33=2) iop(6/42=6)

loop1.cluster6 

   0  1 
WARNING: damped steplength 0.0175868 to 0.00851759
198

C         32.51438       78.45784       25.04794
C         33.37673       77.82274       26.08652
O         34.43512       77.33254       25.76033
H         31.58106       78.84645       25.50593
H         33.06218       79.28950       24.56701
H         32.23213       77.69527       24.29118
N         32.95501       77.78295       27.37037
C         33.61462       77.05928       28.44557
C         32.68208       75.96360       28.95029
O         33.01453       75.32613       29.94027
C         34.01468       78.05757       29.55819
C         32.89257       78.78207       30.19586
O         32.16130       79.50243       29.53109
O         32.76065       78.71841       31.53619
H         32.06689       78.24761       27.58629
H         34.55855       76.56608       28.11797
H         34.67698       78.83862       29.13682
H         34.54975       77.53140       30.37590
N         31.47514       75.70529       28.33772
C         30.52416       74.75892       28.89388
C         29.99670       73.78926       27.83184
O         28.95724       74.08661       27.25630
C         29.34550       75.51276       29.57244
C         29.83391       76.61227       30.52583
C         28.65666       77.28483       31.25231
C         29.08789       78.49328       32.09103
N         29.68230       79.51669       31.23750
H         31.17837       76.23782       27.50781
H         30.98288       74.21551       29.72477
H         28.74199       74.76885       30.13794
H         28.68061       76.00059       28.82311
H         30.35827       77.36619       29.90352
H         30.55436       76.20094       31.26516
H         28.14644       76.55153       31.91109
H         27.92734       77.65538       30.50056
H         29.81138       78.17985       32.88560
H         28.19962       78.92264       32.59206
H         29.66201       80.46895       31.66029
H         30.65921       79.25816       31.18382
H         29.30775       79.52081       30.25948
N         30.56781       72.57429       27.53729
C         31.81014       72.01029       28.08656
C         31.68193       71.79734       29.59627
O         30.56403       71.91730       30.07966
C         33.07082       72.74838       27.52828
C         34.06992       71.85012       26.80024
O         35.34470       72.26668       26.61198
O         33.67563       70.86924       26.18587
H         30.04847       71.97610       26.87475
H         31.84937       70.97694       27.68028
H         33.57229       73.34948       28.29978
H         32.75598       73.49554       26.77109
N         32.68330       71.41188       30.43963
C         34.10916       71.31016       30.15019
C         34.86885       70.76227       31.36966
O         34.24076       70.34434       32.33211
H         32.38227       71.22808       31.40454
H         34.48851       72.32470       29.93851
H         34.30178       70.64849       29.27687
N         36.22973       70.70040       31.41792
C         37.09010       71.25645       30.38307
C         37.00298       72.77417       30.32187
O         37.23332       73.34334       29.26541
C         38.55044       70.77400       30.50125
C         39.26661       71.01227       31.81146
O         38.62906       71.51197       32.88786
O         40.44686       70.71553       31.90322
H         36.65505       70.25279       32.24323
H         36.70787       70.87370       29.41962
H         39.12386       71.27872       29.70003
H         38.57232       69.67956       30.30710
N         36.58380       73.47904       31.40535
C         36.24632       74.88819       31.37666
C         37.38926       75.82817       31.12544
O         37.17536       76.84533       30.48077
H         36.42125       72.97971       32.28990
H         35.85935       75.14715       32.38295
H         35.43445       75.07279       30.64368
N         38.60750       75.61713       31.69711
C         39.67896       76.61318       31.62493
C         39.98160       77.00880       30.20631
O         40.22114       76.15539       29.37014
C         40.93648       76.21709       32.40485
C         41.55780       74.87382       31.98431
O         40.64720       76.25163       33.78087
H         38.75012       74.74668       32.22846
H         39.29630       77.52374       32.13245
H         41.69971       77.00897       32.23256
H         40.33167       75.35990       34.06835
H         42.04318       74.94881       30.98965
H         42.31599       74.58544       32.74072
H         40.80253       74.06411       31.94878
N         39.92455       78.33104       29.87833
C         39.73157       78.83429       28.52302
C         41.03225       79.28584       27.90417
O         41.14950       80.37716       27.36764
C         38.51043       79.81036       28.51743
C         38.06353       80.27798       27.11065
C         38.67461       81.05320       29.42651
C         37.81483       79.12222       26.14742
H         39.88211       78.99409       30.65388
H         39.43741       77.97003       27.89996
H         37.68293       79.20591       28.95191
H         38.81200       80.96108       26.65428
H         37.11428       80.84704       27.22270
H         39.07544       80.83837       30.43039
H         39.33438       81.81696       28.96883
H         37.67400       81.49707       29.61624
H         37.07559       78.42298       26.59087
H         37.42863       79.51009       25.18365
H         38.76119       78.58759       25.92427
N         42.03898       78.38211       27.88105
C         43.32468       78.53726       27.22743
C         43.24414       78.90829       25.74601
O         44.15525       79.56539       25.26426
C         44.11552       77.19971       27.37137
C         43.35310       75.95402       26.85263
O         44.42808       76.99503       28.72566
H         41.86821       77.50280       28.37089
H         43.90003       79.33627       27.74228
H         45.05128       77.31260       26.77675
H         45.34996       76.62975       28.76054
H         43.02559       76.08860       25.80734
H         44.00334       75.05770       26.90138
H         42.45487       75.71130       27.46038
N         42.24349       78.43191       24.94892
C         42.24716       78.47443       23.48346
C         43.24536       77.46789       22.93459
O         44.09362       76.98387       23.67101
C         42.40573       79.89223       22.84774
C         41.40356       80.88411       23.44864
O         42.19607       79.79611       21.45866
H         41.46925       77.91564       25.38976
H         41.25577       78.08109       23.16753
H         43.43393       80.28686       23.01341
H         42.22671       80.71103       21.07121
H         41.76567       81.21429       24.44247
H         41.32921       81.78720       22.80603
H         40.39255       80.43320       23.54115
N         43.14871       77.05463       21.64188
C         44.11628       76.16996       21.02293
C         43.74533       74.68431       20.79927
O         44.70712       73.94349       20.64132
C         44.61196       76.83696       19.71519
C         45.56720       78.00294       20.02120
C         46.06920       78.73479       18.76310
C         47.43915       79.36744       19.06484
N         48.11386       79.80842       17.84664
H         42.43209       77.47581       21.04829
H         44.99831       76.07985       21.69469
H         43.74909       77.17050       19.10347
H         45.18575       76.09618       19.11626
H         46.42987       77.50206       20.51023
H         45.15285       78.74827       20.73347
H         45.33703       79.50157       18.41269
H         46.20565       77.99798       17.94452
H         48.08709       78.59341       19.53341
H         47.33164       80.20861       19.78570
H         47.64170       80.65061       17.45086
H         49.10792       80.03696       18.08025
H         48.12199       79.03439       17.14175
N         42.50254       74.09362       20.72829
C         41.16978       74.65556       20.90398
C         40.88649       75.87594       20.05703
O         40.23526       76.80542       20.51860
C         40.75690       74.69480       22.40052
C         40.39975       73.28720       22.92327
C         39.81436       73.26488       24.31838
O         38.73605       74.00208       24.64526
O         40.18492       72.40514       25.09744
H         42.50755       73.08929       20.48199
H         40.46676       73.93004       20.43043
H         39.82973       75.29208       22.48508
H         41.55880       75.14014       23.02487
H         41.28291       72.61192       22.89287
H         39.63284       72.84318       22.24712
N         41.33036       75.90976       18.76989
C         41.05096       76.99033       17.84756
H         40.27005       77.68704       18.21844
H         41.98248       77.55544       17.64038
H         40.70390       76.54893       16.89037
H         41.91321       75.13341       18.42852
Ca        37.48090       73.07334       26.32778
O         35.98741       74.72206       25.23128
H         35.78668       75.62578       25.53910
H         35.41654       74.53502       24.45224
O         39.86464       73.25168       27.90100
H         40.14709       73.94234       28.54433
H         40.48806       72.50343       28.06416
O         37.98612       70.58106       27.25918
H         37.34548       69.87723       27.52668
H         38.75635       70.09428       26.87826
O         37.23520       71.42946       24.25845
H         37.67796       71.01767       23.47808
H         36.64127       70.73025       24.62855
O         38.14735       75.54382       27.39740
H         38.69992       76.08004       26.77704
H         38.21041       76.00204       28.26697

Ca 1.70



