%chk=loop3.cluster80.chk
%nprocshared=48
%mem=10GB
%nosave
#b3lyp/svp scf=(tight,noincore) Test 
#IOP(5/87=12) Density=Current Pop=(MK,readradii) iop(6/33=2) iop(6/42=6)

loop3.cluster80 

   0  1 
C        105.17033       47.74295       12.20140
C        106.39518       47.87882       11.33646
O        106.68877       46.98035       10.56619
H        104.28583       47.50769       11.57007
H        105.31772       46.93421       12.94390
H        104.94932       48.68995       12.74128
N        107.14157       49.01197       11.38768
C        108.24492       49.27579       10.46688
C        109.54406       48.57614       10.81871
O        109.95149       48.58556       11.97123
C        108.50510       50.78824       10.27171
C        108.77002       51.60179       11.51588
O        107.79313       51.80888       12.41961
O        109.84223       52.16428       11.65950
H        106.84224       49.74392       12.04005
H        107.94155       48.94317        9.44991
H        107.63005       51.23496        9.75732
H        109.37542       50.88530        9.58342
N        110.30581       48.05316        9.80929
C        111.67606       47.58392        9.99304
C        111.78070       46.06886        9.90952
O        112.87688       45.54646       10.07194
C        112.59090       48.26025        8.94354
C        112.53300       49.80199        8.93342
C        112.94369       50.42741       10.27199
C        113.00461       51.95828       10.17727
N        113.60704       52.52446       11.38362
H        109.92826       48.05276        8.84940
H        112.04371       47.84788       11.00695
H        112.29824       47.91272        7.92733
H        113.64323       47.94425        9.11743
H        111.51924       50.15238        8.64522
H        113.24406       50.14923        8.15031
H        113.95009       50.04150       10.53657
H        112.22656       50.14874       11.07465
H        111.98132       52.37162       10.02935
H        113.62550       52.25453        9.30380
H        113.65161       53.56482       11.29215
H        113.04522       52.27331       12.22872
H        114.58265       52.15998       11.48897
N        110.67063       45.29354        9.74612
C        110.68475       43.83690        9.83767
C        110.03521       43.22320        8.61540
O        109.29944       42.25783        8.73875
C        109.97643       43.43497       11.16163
C        108.73226       44.25795       11.46760
O        107.61115       44.21800       10.71900
O        108.75997       45.02581       12.41577
H        109.75433       45.74825        9.62575
H        111.72458       43.44075        9.86979
H        110.69790       43.67124       11.97579
H        109.78297       42.34342       11.21526
N        110.28463       43.73030        7.37943
C        109.54590       43.30988        6.20019
C        108.14540       43.89536        6.23303
O        107.75571       44.44145        7.25612
H        110.95468       44.50663        7.27775
H        109.56768       42.20457        6.06639
H        110.04582       43.77727        5.32844
N        107.34641       43.94643        5.13154
C        107.66534       43.37903        3.82964
C        106.41991       42.64637        3.31501
O        105.36309       43.26200        3.27670
C        108.02977       44.51943        2.86010
C        108.14008       44.02317        1.43812
N        107.14074       44.27335        0.55874
O        109.10402       43.35626        1.09278
H        106.47113       44.48721        5.20758
H        108.54745       42.72620        3.89676
H        108.98343       45.00856        3.16411
H        107.23545       45.29243        2.90919
H        106.29933       44.78881        0.85855
H        107.18547       43.91292       -0.40496
N        106.43878       41.35238        2.87379
C        107.63201       40.52245        2.82700
C        107.74161       39.73980        4.10285
O        107.57710       40.32264        5.16324
H        105.54797       40.93717        2.55790
H        108.54077       41.11216        2.63017
H        107.56119       39.84367        1.94898
N        107.91776       38.38945        4.07590
C        107.69191       37.54359        5.24322
C        108.77094       36.47233        5.41004
O        109.07621       35.76167        4.45867
C        106.33801       36.85738        5.03385
C        105.19784       37.84631        4.87428
C        104.58418       38.41170        6.00114
C        104.72506       38.18877        3.59603
C        103.49496       39.27786        5.86005
C        103.64379       39.06577        3.45356
C        103.01683       39.60258        4.58738
O        101.95368       40.42358        4.46333
H        108.05069       37.92990        3.16063
H        107.61004       38.14601        6.17864
H        106.11199       36.17569        5.88080
H        106.41127       36.23448        4.11688
H        104.93506       38.16186        6.98342
H        105.19768       37.78052        2.71210
H        103.01451       39.68751        6.74059
H        103.28928       39.32169        2.46322
H        101.58008       40.64656        3.59852
N        109.36097       36.28081        6.62379
C        110.37966       35.27014        6.90945
C        109.78491       33.85098        6.86166
O        110.48590       32.91774        6.50611
C        111.12161       35.62504        8.26207
C        110.65485       34.77286        9.46829
C        112.64635       35.56709        8.08698
C        111.13687       35.25323       10.83700
H        109.08254       36.90700        7.37447
H        111.11687       35.37473        6.08240
H        110.92031       36.69554        8.48646
H        110.99531       33.72218        9.31882
H        109.55481       34.81028        9.51200
H        113.15701       36.01927        8.96234
H        112.99670       34.52553        7.94486
H        112.94590       36.17776        7.20709
H        110.68201       36.23895       11.06849
H        110.80433       34.52680       11.61113
H        112.24010       35.32667       10.89550
N        108.47989       33.64463        7.22525
C        107.77127       32.36962        7.08976
C        107.29556       31.79570        8.42725
O        106.54689       30.82325        8.40809
C        106.55994       32.60922        6.16661
O        105.67094       33.52161        6.75578
H        107.93569       34.44176        7.56593
H        108.41342       31.60157        6.60786
H        106.03375       31.64535        5.98231
H        106.92271       33.01376        5.19501
H        104.92732       33.64392        6.11031
N        107.71109       32.30179        9.62423
C        107.26363       31.78695       10.91247
C        106.74018       32.89483       11.79115
O        107.48359       33.81423       12.12131
C        108.40784       31.09138       11.64839
H        108.40070       33.05769        9.63094
H        106.46151       31.02711       10.78347
H        108.68316       30.15778       11.11774
H        109.29652       31.75353       11.72393
H        108.07967       30.81872       12.67745
N        105.46385       32.83328       12.26017
C        104.90699       33.74377       13.24436
C        105.02843       35.18192       12.78505
O        105.45887       36.03803       13.54276
C        105.56504       33.49034       14.60807
H        104.85199       32.07112       11.92651
H        103.82744       33.49309       13.34452
H        105.03532       34.04388       15.41054
H        105.51771       32.40391       14.83874
H        106.63277       33.79596       14.59666
N        104.66677       35.49841       11.51476
C        104.80877       36.83787       10.96875
C        103.48558       37.56706       10.99204
O        103.49872       38.77941       11.14670
C        105.35270       36.76861        9.53506
C        106.82119       36.34368        9.39647
C        107.78517       37.36317        9.94944
O        107.93071       37.51650       11.27584
O        108.46227       38.04171        9.19795
H        104.29026       34.75750       10.90571
H        105.49982       37.45376       11.57988
H        105.26532       37.76987        9.07446
H        104.71776       36.06238        8.95024
H        106.98881       36.26527        8.30452
H        107.02314       35.35254        9.85399
N        102.29573       36.91326       10.91741
C        101.04378       37.63495       10.98334
H        100.19704       36.92188       11.04584
H        101.02554       38.28355       11.88658
H        100.92294       38.26739       10.07745
H        102.26992       35.88644       10.83557
Ca       106.81346       42.68788        9.28438
O        103.95655       41.57072        9.76417
H        104.16872       40.97320       10.52142
H        103.00249       41.79943        9.89150
O        107.17327       40.67786       11.15380
H        107.68233       39.95432       10.72087
H        106.51062       40.21232       11.72020
O        104.85649       44.80855        9.45399
H        105.67886       45.25838        9.13743
H        104.12216       45.37389        9.11020
O        106.41863       40.20774        8.10352
H        106.60223       40.68016        7.25889
H        107.32193       40.02536        8.45309
O        105.04587       42.81053        7.08504
H        104.65899       42.44425        6.25240
H        105.12230       43.78345        6.92429
O        105.57482       42.86247       12.01939
H        105.45874       43.58955       12.67876
H        105.23631       42.05295       12.47548

Ca 1.70



