%chk=loop4.cluster38.chk
%nprocshared=48
%mem=10GB
%nosave
#b3lyp/svp scf=(tight,noincore) Test 
#IOP(5/87=12) Density=Current Pop=(MK,readradii) iop(6/33=2) iop(6/42=6)

loop4.cluster38 

   -3  1 
C        103.80163       24.58920       58.83812
C        105.13005       25.22238       58.53911
O        105.16616       26.27181       57.91392
H        102.99165       25.08945       58.26494
H        103.82200       23.51887       58.53927
H        103.57774       24.65943       59.92240
N        106.28119       24.59882       58.92467
C        107.62460       25.08454       58.59596
C        107.98640       26.37188       59.32207
O        108.95573       27.01379       58.94588
C        107.83379       25.18481       57.06710
C        107.38003       23.91321       56.41416
O        106.40140       23.92258       55.68568
O        107.95862       22.74174       56.72270
H        106.20430       23.69827       59.42181
H        108.35342       24.32322       58.95817
H        108.90222       25.38031       56.82573
H        107.23953       26.02749       56.66110
N        107.34502       26.71440       60.47579
C        107.78547       27.80087       61.34458
C        108.37964       27.14439       62.59283
O        107.68400       26.35079       63.21139
C        106.57280       28.70692       61.72144
C        106.02937       29.48205       60.49449
C        106.96015       29.71760       62.82898
C        104.57706       29.92728       60.70525
H        106.57971       26.11494       60.81916
H        108.53776       28.43284       60.83739
H        105.77184       28.03900       62.11101
H        106.02827       28.85189       59.58070
H        106.68588       30.35966       60.29538
H        107.25963       29.19394       63.76018
H        107.80986       30.35066       62.49431
H        106.12185       30.38901       63.09697
H        104.25632       30.58942       59.87473
H        103.92129       29.02893       60.70791
H        104.42837       30.46879       61.66013
N        109.63297       27.42916       63.07072
C        110.52769       28.42904       62.48737
C        111.27197       27.89542       61.26593
O        111.79690       28.68749       60.49576
C        111.56239       28.91981       63.51884
C        110.93398       29.36778       64.81269
O        110.10141       30.26035       64.82200
O        111.29935       28.78384       65.97084
H        109.91847       26.97233       63.95103
H        109.92531       29.32278       62.22144
H        112.12555       29.77349       63.08384
H        112.27738       28.09961       63.74382
N        111.40663       26.55111       61.06696
C        112.03418       25.96177       59.89802
C        113.47267       26.37141       59.63705
O        114.34288       26.19230       60.47726
H        111.00793       25.89846       61.75530
H        111.41467       26.21607       59.01307
H        112.00743       24.85692       59.99828
N        113.77513       26.83736       58.39767
C        115.10225       27.12671       57.87680
C        115.05097       28.37279       56.98208
O        116.02676       28.64606       56.29626
C        115.62532       25.86384       57.11455
C        114.70445       25.15379       56.13627
O        115.08868       24.12772       55.60021
O        113.45672       25.58066       55.88630
H        113.00228       26.87913       57.72426
H        115.84787       27.31420       58.68434
H        115.86854       25.10043       57.88383
H        116.57667       26.10934       56.59034
N        113.93743       29.17877       56.93402
C        113.78145       30.24323       55.95136
C        113.60136       29.68947       54.53693
O        113.62637       30.45897       53.58790
H        113.16016       29.03100       57.59108
H        114.66221       30.91789       56.01013
H        112.87639       30.84280       56.19459
N        113.38803       28.35403       54.33866
C        113.32730       27.67163       53.05132
C        112.20806       28.12133       52.15189
O        112.45493       28.55294       51.03249
C        114.68640       27.65363       52.33771
C        115.70966       26.86095       53.15181
C        116.93497       26.61572       52.32712
N        117.01710       25.50846       51.55173
O        117.84257       27.43241       52.32687
H        113.27806       27.76017       55.16061
H        113.08808       26.60268       53.24789
H        115.05302       28.67859       52.11212
H        114.54382       27.11067       51.37509
H        115.27463       25.87232       53.41641
H        115.96046       27.37490       54.10054
H        116.24366       24.82572       51.52994
H        117.84564       25.34170       50.96393
N        110.92220       27.94259       52.54926
C        109.81904       28.14813       51.62146
C        109.78103       27.06104       50.56741
O        110.29766       25.97340       50.77789
C        108.44550       28.27792       52.32855
C        108.04122       27.04183       53.16015
C        108.44705       29.54103       53.19078
H        110.74221       27.60996       53.50574
H        110.00018       29.10870       51.09055
H        107.66437       28.42231       51.54869
H        107.06185       27.22419       53.65155
H        107.93394       26.14696       52.51155
H        108.77081       26.80998       53.96178
H        107.44108       29.70702       53.62565
H        109.19679       29.46554       54.00543
H        108.69608       30.42011       52.55599
N        109.11117       27.30902       49.41086
C        108.92622       26.32612       48.35377
C        107.47936       25.89462       48.38147
O        106.65151       26.59540       48.94042
C        109.35349       26.96510       47.02017
C        109.07154       26.15491       45.77896
N        108.66673       26.77906       44.64764
O        109.25614       24.94821       45.77154
H        108.66668       28.23019       49.29302
H        109.53929       25.41854       48.55242
H        110.44407       27.16409       47.07094
H        108.84065       27.94628       46.91310
H        108.57058       27.80541       44.62131
H        108.48828       26.24041       43.78792
N        107.14704       24.64870       47.93324
C        105.86612       24.06007       48.29543
C        106.01505       22.59286       48.63501
O        107.00398       21.97252       48.28351
C        104.78268       24.30028       47.23324
C        104.85146       23.36599       46.04523
C        104.05890       22.20268       46.04003
C        105.66136       23.65077       44.93507
C        104.06202       21.34692       44.93897
C        105.65076       22.79673       43.82314
C        104.84358       21.64662       43.82103
O        104.80443       20.83174       42.74725
H        107.89019       24.04521       47.56791
H        105.53116       24.54640       49.23868
H        104.75208       25.36359       46.90953
H        103.80579       24.11829       47.73077
H        103.43605       21.96112       46.89278
H        106.27713       24.54082       44.91999
H        103.44299       20.45787       44.94965
H        106.25955       23.03264       42.95976
H        105.29493       21.03181       41.93768
N        105.03215       21.98683       49.34840
C        105.08242       20.57761       49.70173
C        103.89072       19.84514       49.07215
O        104.14364       19.06766       48.16057
C        105.29966       20.42750       51.22933
C        106.77826       20.66014       51.58756
C        107.00687       20.59449       53.06388
O        107.54209       21.52892       53.63880
O        106.64565       19.49651       53.75589
H        104.23874       22.55692       49.66045
H        105.96724       20.09040       49.23433
H        105.04722       19.39704       51.54973
H        104.68418       21.15016       51.80391
H        107.13071       21.64445       51.20890
H        107.38518       19.85950       51.11314
N        102.58024       19.98501       49.44547
C        102.11893       20.75531       50.58812
C        100.84842       21.54275       50.32303
O        100.14671       21.29112       49.35274
C        101.87649       19.81788       51.79725
C        100.81964       18.71229       51.56457
C        101.36148       17.51076       50.83690
O        102.34515       16.77823       51.39532
O        100.87536       17.15820       49.77423
H        101.88539       19.40945       48.94713
H        102.85946       21.50699       50.86595
H        101.52516       20.45741       52.63262
H        102.82105       19.34829       52.13813
H         99.93246       19.13214       51.04319
H        100.48070       18.33932       52.55180
N        100.47505       22.49915       51.22132
C         99.20097       23.17771       51.16189
H         98.38838       22.44327       51.34876
H         99.15650       23.94703       51.96400
H         99.05309       23.67055       50.18018
H        101.11547       22.73798       51.99383
Ca       106.72384       20.92015       56.24378
O        104.21079       21.09246       54.79438
H        103.59216       21.86437       54.77254
H        103.63335       20.30915       54.97581
O        109.01726       19.48706       56.10537
H        108.81428       18.52964       55.95842
H        109.94177       19.50942       56.45419
O        107.43407       20.83522       58.91179
H        108.20308       20.30155       59.23110
H        107.37570       21.59989       59.53585

Ca 1.70



