%chk=loop2.cluster141.chk
%nprocshared=48
%mem=10GB
%nosave
#b3lyp/svp scf=(tight,noincore) Test 
#IOP(5/87=12) Density=Current Pop=(MK,readradii) iop(6/33=2) iop(6/42=6)

loop2.cluster141 

   -2  1 
C         63.33382       59.70773       11.02469
C         62.10697       59.90893       11.84409
O         62.14685       60.67534       12.79787
H         64.14956       59.36308       11.69219
H         63.16075       58.94073       10.24225
H         63.61723       60.66605       10.54303
N         60.95313       59.26404       11.52142
C         59.76084       59.44523       12.31466
C         59.92379       58.78088       13.68016
O         60.09246       57.57159       13.75213
C         58.51587       58.91418       11.59012
C         57.28202       59.35114       12.32203
O         56.19103       59.06770       11.88937
O         57.38806       60.16860       13.38331
H         60.91380       58.68095       10.67157
H         59.61102       60.54111       12.41277
H         58.56837       57.81075       11.46773
H         58.45413       59.37639       10.57798
N         59.88618       59.54298       14.80766
C         60.03286       59.02172       16.16365
C         58.89047       58.12561       16.62306
O         59.06286       57.43036       17.61503
C         60.09851       60.19871       17.14208
H         59.80437       60.55363       14.68661
H         60.98806       58.45209       16.20504
H         60.26728       59.85027       18.18139
H         60.91694       60.89043       16.85273
H         59.13683       60.75947       17.10702
N         57.68951       58.11104       15.97441
C         56.58252       57.24668       16.36904
C         56.45183       56.10025       15.37632
O         55.72434       55.15454       15.65106
C         55.24336       58.02277       16.41956
C         55.34013       59.36990       17.08380
O         56.01042       60.25493       16.57646
O         54.64069       59.62903       18.20242
H         57.55982       58.70573       15.15660
H         56.79076       56.82420       17.37794
H         54.48405       57.39327       16.93465
H         54.87785       58.20059       15.38744
N         57.13745       56.11898       14.19068
C         57.08565       55.05063       13.21917
C         55.74148       54.92192       12.54173
O         55.47062       53.87054       11.98433
H         57.73683       56.91473       13.95521
H         57.38262       54.10135       13.71168
H         57.82748       55.25888       12.41698
N         54.89379       55.98881       12.45493
C         53.59891       55.91371       11.78200
C         53.65446       56.39494       10.33173
O         52.74404       56.06340        9.57832
C         52.51183       56.59324       12.66903
C         51.57020       57.51161       11.93870
N         50.30810       57.13879       11.64240
O         51.95922       58.61815       11.61922
H         55.18718       56.89451       12.84291
H         53.30291       54.84696       11.67838
H         52.98159       57.23380       13.44575
H         51.97086       55.82912       13.26181
H         49.96995       56.19875       11.88464
H         49.68184       57.79067       11.14465
N         54.66823       57.17728        9.86225
C         54.73452       57.66096        8.49349
C         54.52609       59.16288        8.36824
O         54.49461       59.64160        7.24844
H         55.41373       57.45770       10.50132
H         53.96052       57.17474        7.86111
H         55.72453       57.39533        8.06331
N         54.34963       59.96438        9.46689
C         54.07150       61.39686        9.35502
C         55.17697       62.20161       10.02575
O         55.67166       61.81374       11.06984
C         52.67925       61.70317        9.94295
C         52.24903       63.13880        9.64817
O         51.72258       60.87386        9.33777
H         54.37302       59.55800       10.40631
H         54.02635       61.70027        8.28912
H         52.68651       61.54963       11.04622
H         51.71961       60.01999        9.82908
H         52.17700       63.27671        8.54618
H         51.24473       63.31735       10.08598
H         52.95903       63.88115       10.06285
N         55.59373       63.36465        9.44966
C         56.75750       64.11836        9.90280
C         56.34230       65.32269       10.73126
O         55.67116       66.21161       10.23032
C         57.58336       64.51711        8.63627
C         58.17990       63.26809        7.93529
C         58.66761       65.57768        8.88090
C         59.29589       62.56631        8.72447
H         55.09452       63.70469        8.61700
H         57.38989       63.49537       10.56163
H         56.87334       64.99491        7.92321
H         58.60075       63.57453        6.95344
H         57.36878       62.53639        7.73178
H         59.42126       65.23499        9.61353
H         59.16940       65.82201        7.91976
H         58.21190       66.52007        9.24553
H         59.64297       61.67782        8.15919
H         60.16828       63.23912        8.85788
H         58.95219       62.21887        9.71862
N         56.78888       65.42566       12.02066
C         56.72312       66.65757       12.79148
C         57.90238       67.52602       12.38918
O         58.74052       67.07289       11.63565
C         56.82225       66.33292       14.30230
C         55.69647       65.46898       14.77892
O         55.95035       64.24976       15.29037
O         54.54930       65.88196       14.73628
H         57.39377       64.68742       12.38455
H         55.77451       67.19267       12.57603
H         56.79346       67.26189       14.90562
H         57.78611       65.80992       14.50475
N         58.02220       68.80001       12.84343
C         59.16088       69.65397       12.50014
C         60.48383       69.11105       13.06767
O         61.42494       69.00391       12.29276
C         58.85756       71.10549       12.91109
C         60.00708       72.04550       12.65557
C         60.48246       72.27967       11.35204
C         60.61019       72.70337       13.73836
C         61.54875       73.16194       11.14440
C         61.67436       73.57973       13.52606
C         62.14397       73.81017       12.23104
H         57.26684       69.18224       13.43017
H         59.26429       69.68535       11.39025
H         58.57547       71.14354       13.97547
H         57.96913       71.45765       12.34140
H         60.02801       71.78631       10.50158
H         60.25595       72.53250       14.74737
H         61.91366       73.34476       10.14182
H         62.13345       74.08007       14.36806
H         62.96850       74.49189       12.07078
N         60.65059       68.71087       14.37430
C         61.86590       68.06339       14.86412
C         62.34279       66.90658       13.99302
O         63.53691       66.66401       13.90771
C         61.41485       67.50243       16.22406
C         60.40093       68.52736       16.67933
C         59.63165       68.81591       15.39562
H         62.66076       68.83318       14.97271
H         60.84320       66.55670       16.07231
H         62.24241       67.30249       16.93816
H         59.76127       68.22594       17.53683
H         60.96895       69.44324       16.95773
H         58.85529       68.05646       15.20222
H         59.19694       69.82391       15.49882
N         61.43327       66.12599       13.35212
C         61.78857       64.99591       12.49868
C         62.27856       65.49208       11.14299
O         63.21335       64.92064       10.60043
C         60.56720       64.05634       12.39482
C         60.19125       63.54766       13.81134
C         58.89177       62.81850       13.87780
O         58.25130       62.58925       12.86751
O         58.41315       62.43387       15.07716
H         60.43362       66.34306       13.47927
H         62.58795       64.38479       12.97395
H         60.78273       63.18467       11.73703
H         59.71801       64.61891       11.95711
H         60.07345       64.39845       14.50983
H         60.99983       62.89247       14.20343
N         61.69384       66.57077       10.54697
C         62.15236       67.16291        9.30819
H         63.15306       66.79354        9.00676
H         61.41133       66.96237        8.50804
H         62.22104       68.26629        9.43847
H         60.90056       67.01783       11.00220
Ca        55.84827       61.62729       14.11635
O         53.15578       61.71302       15.59747
H         52.49996       61.07529       15.21908
H         53.21521       61.46528       16.55283
O         53.75960       63.10193       12.96706
H         52.77586       63.03132       13.02625
H         53.95591       64.01836       13.27175
O         53.96363       59.93229       13.54743
H         54.31155       59.04449       13.30638
H         53.30976       60.16078       12.84773

Ca 1.70



