%chk=loop4.cluster105.chk
%nprocshared=48
%mem=10GB
%nosave
#b3lyp/svp scf=(tight,noincore) Test 
#IOP(5/87=12) Density=Current Pop=(MK,readradii) iop(6/33=2) iop(6/42=6)

loop4.cluster105 

   -3  1 
C         47.74954       51.78212       60.32087
C         48.01389       51.31209       61.71507
O         48.91434       50.50836       61.89632
H         46.92519       52.52296       60.29116
H         48.67224       52.25995       59.92647
H         47.48782       50.91410       59.68142
N         47.29546       51.80586       62.76750
C         47.58014       51.45030       64.15249
C         49.04814       51.81966       64.47564
O         49.59225       51.11685       65.53464
C         47.06674       50.02853       64.51716
C         47.50100       48.79257       63.73813
O         46.64525       48.13129       63.17635
O         48.77838       48.36241       63.66945
H         46.56434       52.51070       62.58703
H         46.95687       52.10095       64.81234
H         45.95957       50.09110       64.38606
H         47.23292       49.86623       65.60393
N         49.15385       53.26247       64.68484
C         50.46321       53.83364       65.04530
C         50.68820       53.69429       66.54414
O         51.04999       52.63332       67.02618
C         51.69399       53.39360       64.18433
C         52.83966       54.42138       64.39948
C         51.33912       53.29150       62.69296
C         54.16503       54.06506       63.71841
H         48.77680       53.75846       63.84529
H         50.32969       54.91816       64.83780
H         52.03204       52.38905       64.51976
H         53.02656       54.50687       65.47712
H         52.52501       55.43086       64.05744
H         50.90228       54.24098       62.32546
H         52.22510       53.03686       62.08147
H         50.61953       52.46886       62.52630
H         54.07826       54.12407       62.61479
H         54.94421       54.79543       64.02491
H         54.50054       53.04981       64.01491
N         50.48287       54.76621       67.34421
C         50.65529       54.72653       68.79084
C         49.49663       53.98822       69.46467
O         48.36499       54.20515       69.05502
C         50.81995       56.15803       69.33503
C         49.63828       57.09036       69.19434
O         48.93406       57.07445       68.19760
O         49.49287       58.09266       70.07918
H         50.21557       55.64834       66.89344
H         51.62836       54.24385       68.98739
H         51.68654       56.61485       68.80815
H         51.09221       56.10145       70.40990
N         49.65346       53.09557       70.49087
C         50.90219       52.78571       71.16785
C         51.23633       51.33108       70.93924
O         50.41172       50.49935       71.29174
H         48.80873       52.61349       70.84031
H         50.75102       52.93892       72.26014
H         51.70991       53.47939       70.91819
N         52.40867       50.89326       70.38766
C         53.54274       51.72637       69.97281
C         54.19429       51.09746       68.73004
O         54.23666       49.87703       68.65490
C         54.50695       51.81934       71.17274
C         55.80920       52.51112       70.89479
O         56.82037       51.84407       70.75171
O         55.91416       53.84521       71.05013
H         52.54135       49.86896       70.36138
H         53.20264       52.73252       69.70092
H         54.73606       50.79665       71.53553
H         54.00056       52.35736       72.00532
N         54.68060       51.82675       67.67579
C         54.88916       53.26709       67.68263
C         56.29915       53.58067       67.23873
O         56.50053       54.47675       66.42843
H         54.99232       51.31487       66.83550
H         54.74472       53.71152       68.68169
H         54.17901       53.75548       67.01255
N         57.33686       52.87840       67.76439
C         58.73901       53.17359       67.50617
C         59.23234       52.80035       66.10810
O         60.37003       53.11280       65.79561
C         59.60687       52.51571       68.60011
C         59.60332       50.97397       68.58834
C         60.42384       50.39736       69.72075
N         60.60012       49.06024       69.82013
O         60.93009       51.13355       70.55585
H         57.10608       52.14242       68.43757
H         58.87602       54.27087       67.63129
H         59.22843       52.87219       69.58366
H         60.65627       52.86361       68.48787
H         60.02753       50.64824       67.62446
H         58.57762       50.55733       68.66976
H         60.18563       48.42134       69.12698
H         61.16086       48.66763       70.59107
N         58.43744       52.13722       65.21797
C         58.86765       51.82925       63.85209
C         58.90855       50.33296       63.65122
O         58.06682       49.64017       64.18871
C         57.95682       52.57227       62.85338
C         58.16554       52.09031       61.40772
C         58.26958       54.07437       62.94042
H         57.48804       51.85335       65.49596
H         59.90029       52.18916       63.65768
H         56.89443       52.40737       63.12739
H         57.84330       51.03138       61.30243
H         57.55643       52.69830       60.70740
H         59.23397       52.16560       61.11589
H         57.59506       54.65483       62.28045
H         58.14773       54.44573       63.97946
H         59.32232       54.25954       62.62808
N         59.95805       49.79122       62.95081
C         60.31669       48.37712       62.84891
C         59.40269       47.45988       62.03958
O         59.89024       46.83587       61.10587
C         60.59567       47.76395       64.23343
C         61.63908       48.53754       65.00400
N         61.39988       48.92103       66.27629
O         62.71641       48.79408       64.48644
H         60.63333       50.44763       62.53189
H         61.29580       48.34773       62.31262
H         60.99002       46.73728       64.08171
H         59.65764       47.68522       64.82313
H         60.51199       48.67055       66.73262
H         62.11379       49.43813       66.81161
N         58.11134       47.22725       62.40615
C         57.36646       46.06424       61.96726
C         56.27383       46.38133       60.96701
O         55.10390       46.33410       61.30533
C         56.81263       45.35003       63.22347
C         57.89600       44.93890       64.20140
C         57.77761       45.25451       65.56841
C         59.01817       44.21366       63.76239
C         58.75049       44.82352       66.47811
C         59.99491       43.80424       64.66914
C         59.85653       44.09229       66.03225
O         60.77462       43.65879       66.91910
H         57.70123       47.74853       63.17450
H         58.01844       45.33561       61.44294
H         56.27069       44.43850       62.89864
H         56.07978       46.01389       63.73745
H         56.92085       45.80717       65.93492
H         59.14467       43.96410       62.71958
H         58.63833       45.04524       67.53230
H         60.85374       43.25136       64.31143
H         61.52197       43.10753       66.64458
N         56.60820       46.54457       59.65447
C         55.61822       46.55806       58.57592
C         54.64577       47.70606       58.74304
O         53.43389       47.49858       58.75072
C         54.90529       45.18748       58.47565
C         55.89258       44.01831       58.33390
C         55.16745       42.71388       58.47651
O         55.31495       41.98891       59.60268
O         54.41082       42.32688       57.60097
H         57.60340       46.55972       59.39008
H         56.16654       46.71413       57.61776
H         54.19698       45.18328       57.61764
H         54.31518       45.02742       59.40228
H         56.63456       44.07235       59.15676
H         56.44838       44.05803       57.36999
N         55.11921       48.96997       58.83615
C         54.27603       50.15287       58.87415
C         54.33904       50.80356       57.50325
O         53.30186       51.10493       56.93524
C         54.77058       51.12428       59.96096
C         54.77208       50.55392       61.39127
C         53.42995       50.47189       62.06532
O         53.37080       50.53804       63.40933
O         52.39624       50.42112       61.41971
H         56.14565       49.09896       58.80484
H         53.21096       49.90014       59.08132
H         54.17567       52.06600       59.95200
H         55.81729       51.38998       59.70844
H         55.35163       51.27007       61.99935
H         55.30465       49.58195       61.45744
N         55.54238       50.96740       56.87525
C         55.64237       51.49597       55.53327
H         56.69738       51.42642       55.18905
H         55.01378       50.90074       54.83624
H         55.32746       52.55821       55.51942
H         56.40957       50.66390       57.33473
Ca        50.50353       49.62134       64.18111
O         53.64331       47.78347       63.56932
H         54.39988       48.00050       62.97454
H         54.07197       47.37209       64.35920
O         52.20205       49.74462       66.16149
H         52.23237       50.62131       66.60953
H         52.81211       49.16884       66.67737
O         50.38894       47.86589       61.37498
H         51.10029       47.32045       60.95616
H         49.74827       48.05044       60.64281
O         51.26317       46.98880       64.84788
H         50.59855       46.35163       65.20584
H         52.08013       46.81448       65.37676

Ca 1.70



