%chk=loop1.cluster28.chk
%nprocshared=48
%mem=10GB
%nosave
#b3lyp/svp scf=(tight,noincore) Test 
#IOP(5/87=12) Density=Current Pop=(MK,readradii) iop(6/33=2) iop(6/42=6)

loop1.cluster28 

   0  1 
C         33.02211       79.86021       25.93155
C         33.81079       78.93841       26.81054
O         34.85280       78.46406       26.39249
H         32.10296       80.21897       26.44301
H         33.64829       80.73639       25.67005
H         32.71960       79.32620       25.00651
N         33.35790       78.63742       28.05436
C         34.02687       77.72051       28.96816
C         33.12731       76.51904       29.25562
O         33.36299       75.82036       30.23236
C         34.43291       78.48749       30.25902
C         33.34210       79.21869       30.98397
O         32.80929       80.19431       30.47898
O         33.02223       78.85883       32.24215
H         32.46838       79.05682       28.36289
H         34.97228       77.31193       28.54839
H         35.22436       79.22860       30.01515
H         34.85671       77.77069       30.97889
N         32.05246       76.23665       28.45386
C         31.02644       75.27879       28.83346
C         30.67300       74.28520       27.71611
O         29.67963       74.52467       27.03994
C         29.75903       76.10450       29.18019
C         30.00440       77.13682       30.28672
C         28.67506       77.73745       30.75776
C         28.83217       78.64411       31.98574
N         29.75917       79.74601       31.74343
H         31.87506       76.80759       27.61522
H         31.28104       74.72950       29.76089
H         28.97725       75.39002       29.51615
H         29.37851       76.65096       28.28440
H         30.66931       77.94306       29.89910
H         30.50107       76.64038       31.14442
H         27.99036       76.91244       31.05186
H         28.20315       78.30236       29.92370
H         29.19464       78.04355       32.85126
H         27.83112       79.05024       32.24502
H         29.69522       80.43608       32.52518
H         30.72577       79.36719       31.73066
H         29.55482       80.21946       30.83430
N         31.31988       73.09948       27.47663
C         32.51768       72.54411       28.11860
C         32.30481       72.22425       29.60917
O         31.14588       72.21622       30.00637
C         33.79770       73.25573       27.57487
C         34.92011       72.27095       27.27033
O         36.20402       72.51264       27.59152
O         34.65441       71.20081       26.74481
H         30.90305       72.50982       26.73578
H         32.56108       71.52572       27.67597
H         34.09822       74.13583       28.17755
H         33.52921       73.64169       26.56874
N         33.28022       71.86140       30.50934
C         34.72321       71.86271       30.27103
C         35.53499       71.44134       31.50570
O         34.95408       70.96293       32.46400
H         32.95191       71.60937       31.45180
H         35.01403       72.89270       30.00014
H         34.97418       71.13520       29.47528
N         36.90482       71.54818       31.55492
C         37.71933       72.18937       30.52788
C         37.56415       73.71604       30.51124
O         37.98243       74.33912       29.55434
C         39.21061       71.79220       30.64146
C         39.89623       72.16329       31.93384
O         39.23534       72.79934       32.92032
O         41.07060       71.87102       32.09210
H         37.37914       71.15593       32.38451
H         37.38752       71.78514       29.55279
H         39.77235       72.26203       29.80490
H         39.28360       70.68912       30.52091
N         36.94742       74.37212       31.53757
C         36.57519       75.77931       31.46748
C         37.66787       76.83574       31.40118
O         37.31057       78.00804       31.35918
H         36.62456       73.84411       32.35613
H         35.95247       76.00645       32.36024
H         35.94270       75.89984       30.56597
N         39.00010       76.55200       31.38741
C         39.99557       77.61653       31.21337
C         39.87097       78.24469       29.82739
O         40.09786       77.56619       28.84271
C         41.46353       77.15511       31.44875
C         41.85252       75.80965       30.81440
O         41.76850       77.13829       32.81960
H         39.29905       75.57330       31.48169
H         39.80525       78.41574       31.96656
H         42.11129       77.94198       30.99937
H         41.20089       76.44839       33.24775
H         41.38747       74.96485       31.36538
H         41.55527       75.75049       29.75240
H         42.95111       75.67691       30.88323
N         39.50804       79.55231       29.69268
C         39.38907       80.23999       28.40228
C         40.79152       80.49281       27.82293
O         41.36368       81.55265       28.02886
C         38.45712       81.49934       28.53477
C         38.16876       82.19010       27.17589
C         38.93772       82.54199       29.56706
C         37.17107       81.41175       26.31128
H         39.28278       80.06472       30.55185
H         38.84385       79.57529       27.70297
H         37.47469       81.15233       28.93057
H         39.11128       82.38561       26.62133
H         37.67905       83.17051       27.36230
H         38.95798       82.13183       30.59479
H         39.93036       82.96059       29.32829
H         38.20835       83.37785       29.61345
H         37.54505       80.40844       26.03059
H         36.20957       81.30084       26.86145
H         36.96137       81.98482       25.38294
N         41.40875       79.51496       27.10185
C         42.81195       79.56396       26.67518
C         42.96986       79.85319       25.19531
O         44.00289       80.37283       24.79506
C         43.51688       78.20410       26.97871
C         42.83464       76.97312       26.33747
O         43.58124       78.00497       28.36724
H         40.85841       78.68134       26.87101
H         43.36178       80.36595       27.21929
H         44.54793       78.26116       26.54749
H         44.53434       77.85168       28.60129
H         43.43805       76.06015       26.51718
H         41.83808       76.78714       26.77890
H         42.70998       77.07934       25.24204
N         42.03999       79.40489       24.31582
C         42.20362       79.36581       22.87106
C         43.25967       78.35105       22.46027
O         44.12785       78.00096       23.24959
C         42.37965       80.73198       22.15950
C         41.40235       81.77367       22.71078
O         42.12946       80.53823       20.78835
H         41.18125       78.97618       24.68649
H         41.23745       78.96150       22.50923
H         43.41928       81.11299       22.29102
H         42.33371       81.38588       20.31627
H         41.71627       82.07675       23.73173
H         41.40659       82.68081       22.06971
H         40.37238       81.36235       22.74666
N         43.19280       77.80127       21.21913
C         44.14840       76.84617       20.70006
C         43.65827       75.42610       20.38468
O         44.54611       74.62575       20.11769
C         44.73626       77.41393       19.39482
C         45.62338       78.63170       19.63955
C         46.39817       78.97688       18.36374
C         47.47845       80.02083       18.65171
N         48.26286       80.30288       17.45059
H         42.46932       78.13800       20.59409
H         44.96758       76.69330       21.43969
H         43.91739       77.65715       18.67652
H         45.37253       76.63507       18.92489
H         46.35921       78.35550       20.42338
H         45.02744       79.50225       19.99726
H         45.69533       79.34076       17.58114
H         46.90667       78.06269       17.98480
H         48.16233       79.63787       19.44476
H         46.99819       80.95217       19.01951
H         48.88423       81.12244       17.63541
H         48.85708       79.47516       17.21076
H         47.63285       80.52669       16.64677
N         42.37201       74.95360       20.32738
C         41.09205       75.60524       20.57969
C         40.75604       76.77529       19.67932
O         40.20643       77.76467       20.14800
C         40.82217       75.76981       22.10176
C         39.63484       74.88998       22.52539
C         39.40880       74.90835       24.00237
O         39.00856       76.03808       24.61202
O         39.56040       73.88688       24.65311
H         42.28978       73.96114       20.04965
H         40.35298       74.85820       20.21126
H         40.64578       76.82273       22.38977
H         41.71546       75.42733       22.67144
H         39.85908       73.84436       22.21870
H         38.70717       75.21938       22.00767
N         41.05222       76.72248       18.35212
C         40.78327       77.83151       17.46101
H         39.89423       78.41094       17.78973
H         41.66920       78.50031       17.41773
H         40.57438       77.44250       16.44340
H         41.53788       75.89562       17.97348
Ca        37.50032       74.21662       26.89377
O         35.47654       75.42835       25.68506
H         35.73712       76.28827       26.08801
H         34.78808       75.64866       25.01446
O         40.32694       74.65322       27.34932
H         40.02993       75.38939       27.93505
H         41.29948       74.58135       27.51056
O         39.05536       71.61013       27.23612
H         38.32760       70.95359       27.37491
H         39.88114       71.06536       27.23140
O         36.58082       73.08038       24.35668
H         35.65338       73.14143       24.69502
H         36.48933       72.64105       23.47627
O         37.84981       76.99245       27.16569
H         37.93942       77.66500       26.44560
H         37.71706       77.51572       27.99334

Ca 1.70



