%chk=loop4.cluster19.chk
%nprocshared=48
%mem=10GB
%nosave
#b3lyp/svp scf=(tight,noincore) Test 
#IOP(5/87=12) Density=Current Pop=(MK,readradii) iop(6/33=2) iop(6/42=6)

loop4.cluster19 

   -3  1 
C         55.11437       56.19683       45.18440
C         54.30435       56.87262       46.24029
O         53.50699       57.74493       45.93379
H         56.16115       56.09594       45.54300
H         54.70079       55.18247       45.00533
H         55.11331       56.78651       44.24585
N         54.48878       56.51810       47.53546
C         53.75551       57.10520       48.64007
C         53.95159       58.62080       48.73142
O         55.07915       59.08884       48.64294
C         54.22425       56.44222       49.95110
C         53.34526       56.85625       51.07511
O         52.12743       57.29786       50.76759
O         53.64338       56.61061       52.21832
H         55.18753       55.78791       47.74236
H         52.67580       56.87267       48.48676
H         55.28301       56.70292       50.14938
H         54.13155       55.33385       49.86828
N         52.87795       59.43900       48.95722
C         52.93697       60.89701       48.97979
C         52.70258       61.49620       50.36833
O         52.99694       62.66881       50.54298
C         51.91156       61.40900       47.91784
C         52.47340       61.02381       46.52309
C         51.57519       62.90375       48.03150
C         51.72478       61.57206       45.31527
H         51.95601       59.00828       49.08690
H         53.96370       61.24150       48.71712
H         50.93446       60.90240       48.09266
H         52.49363       59.91926       46.44100
H         53.51718       61.39261       46.44279
H         52.46964       63.53345       47.86707
H         50.77525       63.16771       47.30846
H         51.12581       63.12290       49.02403
H         51.74406       62.68104       45.32537
H         52.26013       61.24609       44.39798
H         50.68008       61.20319       45.28103
N         52.21787       60.75620       51.40442
C         52.05070       61.31145       52.75146
C         52.96986       60.63539       53.76147
O         53.03488       61.10732       54.89234
C         50.56254       61.27902       53.16317
C         49.90117       59.96004       52.95263
O         50.30864       58.88623       53.63499
O         48.97497       59.86285       52.16601
H         51.96016       59.77777       51.24765
H         52.34932       62.38157       52.77594
H         50.01548       62.01696       52.54031
H         50.44434       61.56638       54.22930
N         53.74033       59.55622       53.43552
C         54.70704       58.96377       54.34408
C         54.18025       57.76360       55.11550
O         54.95342       57.15074       55.83023
H         53.67484       59.15133       52.49292
H         55.06107       59.70986       55.08890
H         55.59969       58.67250       53.74849
N         52.85998       57.41325       55.07222
C         52.29218       56.38233       55.95019
C         52.63940       54.94325       55.55020
O         52.18231       54.02213       56.21787
C         50.76676       56.60996       56.12744
C         49.87655       56.37814       54.94930
O         48.56444       56.65932       55.06349
O         50.31806       55.96855       53.89207
H         52.22493       57.97864       54.51145
H         52.69136       56.56535       56.97087
H         50.61412       57.66811       56.43185
H         50.39404       55.95974       56.94611
N         53.48082       54.66798       54.51100
C         53.87445       53.32898       54.10992
C         52.84443       52.58671       53.26824
O         53.06769       51.42600       52.96904
H         53.94775       55.43971       54.04578
H         54.15323       52.74990       55.01514
H         54.78399       53.40563       53.47402
N         51.71930       53.20970       52.81332
C         50.68591       52.54466       52.01839
C         50.51759       53.26325       50.69861
O         50.44104       54.48326       50.70118
C         49.33006       52.65694       52.72703
C         49.25920       52.00821       54.11167
C         47.88922       52.26668       54.68762
N         47.49041       53.53396       54.94223
O         47.13197       51.33492       54.90928
H         51.58497       54.19987       53.02808
H         50.90732       51.46937       51.84698
H         48.55521       52.17924       52.08411
H         49.08695       53.73389       52.81925
H         50.02257       52.44091       54.79415
H         49.44276       50.91569       54.01752
H         48.13072       54.31487       54.76845
H         46.54988       53.73460       55.30969
N         50.31632       52.56092       49.54271
C         50.05714       53.24270       48.28094
C         48.58530       53.09786       47.93953
O         48.14688       51.99264       47.65435
C         50.99745       52.73084       47.15600
C         50.93421       53.65172       45.92729
C         52.44818       52.63885       47.65603
H         50.28607       51.53234       49.56938
H         50.27921       54.30830       48.40136
H         50.69135       51.70804       46.84503
H         51.28631       54.66846       46.19550
H         51.59134       53.26329       45.12041
H         49.90091       53.71578       45.52794
H         52.52760       51.84147       48.42647
H         53.13278       52.36241       46.82733
H         52.77954       53.60087       48.10218
N         47.75206       54.18632       47.97818
C         46.34294       54.09719       47.61553
C         46.20399       54.26906       46.11848
O         47.20193       54.46761       45.45128
C         45.44388       55.06349       48.44685
C         45.31346       56.50076       47.97331
N         46.33589       57.37530       48.06161
O         44.23566       56.88737       47.54561
H         48.13486       55.10210       48.22201
H         45.98515       53.07831       47.88527
H         45.74104       55.03879       49.51794
H         44.41559       54.64490       48.39707
H         47.22905       57.09103       48.46784
H         46.21105       58.35381       47.75837
N         44.99001       54.19543       45.51859
C         44.81353       54.34642       44.07540
C         45.32103       55.70277       43.56496
O         46.02115       55.72617       42.56216
C         43.32772       54.16315       43.74013
C         43.08148       54.14412       42.25757
C         43.39818       53.00540       41.49537
C         42.51845       55.26244       41.63114
C         43.13087       52.98471       40.12300
C         42.26727       55.24602       40.25933
C         42.56243       54.10284       39.50186
O         42.29750       54.07027       38.18089
H         44.16432       54.00926       46.10708
H         45.37689       53.53600       43.55746
H         42.76055       54.98513       44.22644
H         42.94527       53.20572       44.16152
H         43.82884       52.12984       41.96774
H         42.28482       56.14887       42.20729
H         43.35790       52.09798       39.54352
H         41.83775       56.11954       39.78764
H         41.88080       54.81887       37.73044
N         45.01345       56.87109       44.20666
C         45.51207       58.17847       43.75563
C         47.03593       58.23409       43.70574
O         47.57733       58.84912       42.79826
C         44.98797       59.34433       44.62894
C         43.47366       59.55885       44.47230
C         43.02643       60.80774       45.18332
O         43.26507       60.96299       46.49937
O         42.44775       61.68936       44.56669
H         44.42524       56.82537       45.05020
H         45.14923       58.36823       42.72175
H         45.48943       60.28130       44.29762
H         45.24529       59.17802       45.69822
H         42.92343       58.68620       44.87857
H         43.22389       59.66320       43.39216
N         47.78928       57.63468       44.66430
C         49.25458       57.61065       44.62290
C         49.76602       56.70246       43.50837
O         50.82432       56.97478       42.95828
C         49.78210       57.14660       45.98898
C         49.56536       58.24668       47.05604
C         49.71616       57.72537       48.45443
O         49.50087       58.50688       49.52454
O         49.99989       56.56150       48.64277
H         47.30377       57.15615       45.43800
H         49.65862       58.63388       44.45258
H         50.86955       56.92276       45.95543
H         49.24320       56.20971       46.25344
H         48.55229       58.68435       46.97371
H         50.30452       59.05192       46.87370
N         49.06813       55.59662       43.13063
C         49.49747       54.72251       42.06191
H         50.50098       54.30344       42.28207
H         48.77720       53.88026       41.96085
H         49.51654       55.27985       41.10183
H         48.19501       55.37111       43.60527
Ca        50.03837       57.42811       51.42609
O         47.16404       55.52262       52.36758
H         47.95289       55.93398       52.79637
H         46.39494       55.90796       52.85700
O         47.07391       58.06748       50.96191
H         46.23381       57.69246       51.32116
H         46.92741       59.04494       50.97916

Ca 1.70



