%chk=loop1.cluster89.chk
%nprocshared=48
%mem=10GB
%nosave
#b3lyp/svp scf=(tight,noincore) Test 
#IOP(5/87=12) Density=Current Pop=(MK,readradii) iop(6/33=2) iop(6/42=6)

loop1.cluster89 

   0  1 
C         38.97689        1.16225       38.58006
C         38.30687       -0.13091       38.91202
O         38.09598       -0.92896       38.01164
H         39.95355        0.95187       38.09913
H         38.33555        1.73592       37.87662
H         39.14063        1.77396       39.49040
N         37.89190       -0.38893       40.18717
C         37.16241       -1.59886       40.53996
C         35.67732       -1.28658       40.65511
O         35.04540       -1.64453       41.63769
C         37.78336       -2.30534       41.77548
C         37.76188       -1.50113       43.05205
O         37.13132       -1.98488       44.13969
O         38.35691       -0.43913       43.12796
H         38.02591        0.33758       40.90107
H         37.23898       -2.32372       39.70518
H         38.83423       -2.57653       41.54509
H         37.23783       -3.24958       41.96354
N         35.05454       -0.62622       39.63108
C         33.61228       -0.42804       39.55423
C         33.15761       -0.74039       38.12777
O         33.53378        0.01401       37.24074
C         33.23626        1.02724       39.89877
C         33.42109        1.34459       41.39153
C         32.81887        2.71771       41.71549
C         33.01688        3.10184       43.18616
N         32.38159        4.38959       43.47005
H         35.62396       -0.28122       38.84516
H         33.09105       -1.05662       40.28903
H         32.16013        1.16550       39.65872
H         33.82464        1.74520       39.28132
H         34.50075        1.31318       41.65491
H         32.88254        0.58385       41.99979
H         31.72846        2.69045       41.49277
H         33.29459        3.49245       41.07664
H         34.10678        3.17155       43.39654
H         32.57860        2.32447       43.85199
H         32.62272        4.68806       44.44233
H         32.71886        5.11841       42.79972
H         31.34214        4.29809       43.39181
N         32.37227       -1.81209       37.77321
C         31.88787       -2.90475       38.63003
C         30.87491       -2.41295       39.66503
O         30.68658       -1.20579       39.75492
C         33.06924       -3.67293       39.26685
C         34.22492       -3.88730       38.33712
O         34.12855       -4.65240       37.24353
O         35.29811       -3.38030       38.59776
H         32.13445       -1.89074       36.77068
H         31.35360       -3.60659       37.95135
H         32.76269       -4.65346       39.65377
H         33.44829       -3.11586       40.13544
N         30.14089       -3.23082       40.48363
C         30.11025       -4.69352       40.48911
C         30.39928       -5.19113       41.90214
O         29.82084       -4.63436       42.81982
H         29.50012       -2.76506       41.14430
H         30.72040       -5.13683       39.69551
H         29.06502       -4.98660       40.26046
N         31.26783       -6.20540       42.20972
C         31.96164       -7.09260       41.28053
C         33.46114       -6.78668       41.21987
O         34.16175       -7.40211       40.43714
C         31.64464       -8.55338       41.68700
C         32.05887       -8.86611       43.10336
O         33.23641       -9.02060       43.38327
O         31.12814       -8.92475       44.07700
H         31.43349       -6.36814       43.21815
H         31.58330       -6.96569       40.24914
H         32.09116       -9.29840       40.99355
H         30.53978       -8.66696       41.62292
N         33.97359       -5.75852       41.96757
C         35.30477       -5.18710       41.85960
C         36.42360       -6.01603       41.28797
O         36.72992       -7.07588       41.82237
H         33.34177       -5.22825       42.57356
H         35.62291       -4.89331       42.88015
H         35.19485       -4.24666       41.28493
N         37.17854       -5.50709       40.27370
C         38.38899       -6.13845       39.77984
C         39.18483       -5.16304       38.93350
O         38.65324       -4.62906       37.96560
C         38.07056       -7.39796       38.94867
C         39.36527       -8.09350       38.49862
O         37.31206       -7.03778       37.82829
H         36.92991       -4.58067       39.90478
H         39.01494       -6.43432       40.65172
H         37.48449       -8.10247       39.57625
H         37.03027       -7.88488       37.40426
H         39.12844       -8.99545       37.89864
H         39.98023       -7.41774       37.86708
H         39.95983       -8.39784       39.38523
N         40.49489       -4.92716       39.21593
C         41.35990       -4.16601       38.33105
C         42.52796       -5.04306       37.91939
O         43.48571       -5.19909       38.66416
C         41.70210       -2.76391       38.89945
C         42.81364       -2.02620       38.10887
C         42.06735       -2.79763       40.39163
C         42.65613       -2.04625       36.58555
H         40.91891       -5.37668       40.04432
H         40.81521       -3.93773       37.38879
H         40.76393       -2.16693       38.82175
H         43.80131       -2.47638       38.34545
H         42.82709       -0.96737       38.44821
H         42.27556       -1.77001       40.75707
H         41.21709       -3.18895       40.99021
H         42.95617       -3.43543       40.57133
H         42.75978       -3.07538       36.19232
H         41.67626       -1.63407       36.27245
H         43.47400       -1.45271       36.12675
N         42.43661       -5.72202       36.74163
C         43.45231       -6.63438       36.22386
C         43.74118       -6.37357       34.73599
O         44.53599       -7.09176       34.14492
C         42.92461       -8.07859       36.44465
C         41.74495       -8.42498       35.51963
O         42.50281       -8.23113       37.77706
H         41.54518       -5.65467       36.23152
H         44.39676       -6.52394       36.80322
H         43.72363       -8.82445       36.23745
H         43.27355       -8.01188       38.36215
H         40.94559       -7.65678       35.53999
H         42.10389       -8.53072       34.47847
H         41.29599       -9.39366       35.81579
N         43.07069       -5.38982       34.06218
C         43.11350       -5.13746       32.63046
C         42.49605       -6.26229       31.82122
O         42.31034       -7.36063       32.32895
C         44.49719       -4.69628       32.09253
C         45.16341       -3.68590       33.03764
O         44.30297       -4.09555       30.83728
H         42.43962       -4.76929       34.57934
H         42.43429       -4.26518       32.48613
H         45.17231       -5.57617       31.97301
H         45.19838       -3.94695       30.43675
H         44.41487       -3.00755       33.49892
H         45.70247       -4.23191       33.84079
H         45.90565       -3.06828       32.49024
N         42.09625       -6.02230       30.54312
C         41.56047       -7.03447       29.66508
C         40.09071       -6.87795       29.22951
O         39.63928       -7.84075       28.62612
C         42.44589       -7.08192       28.40250
C         43.90211       -7.49518       28.67969
C         44.70120       -7.38679       27.37505
C         46.16046       -7.83085       27.51729
N         46.90389       -7.50124       26.29943
H         42.24639       -5.09345       30.15660
H         41.60334       -8.02934       30.16438
H         42.43091       -6.06761       27.93911
H         42.02976       -7.80126       27.66539
H         43.92235       -8.53574       29.07049
H         44.36502       -6.82262       29.43642
H         44.68255       -6.31934       27.06513
H         44.22236       -7.99895       26.57940
H         46.20546       -8.92841       27.70441
H         46.63269       -7.30807       28.37683
H         46.84224       -6.47218       26.11675
H         47.91020       -7.75359       26.42358
H         46.51417       -8.02188       25.48025
N         39.23393       -5.80772       29.40881
C         39.41031       -4.47809       29.99667
C         40.45136       -3.61860       29.32035
O         41.28418       -3.01712       29.98306
C         39.40714       -4.44551       31.53437
C         38.04352       -4.88242       32.08486
C         38.03354       -4.75886       33.57395
O         38.16824       -3.66638       34.10309
O         37.89714       -5.85850       34.33288
H         38.29158       -5.95119       29.00867
H         38.48655       -3.90906       29.74489
H         39.56126       -3.39081       31.85861
H         40.20481       -5.06505       31.97063
H         37.84238       -5.93370       31.79087
H         37.22916       -4.24187       31.67201
N         40.34047       -3.39300       27.98567
C         41.15592       -2.40620       27.31607
H         42.20080       -2.76165       27.20827
H         40.72083       -2.19847       26.31661
H         41.13473       -1.45585       27.89303
H         39.58924       -3.85727       27.45728
Ca        36.13437       -4.97195       36.27522
O         36.19361       -2.17303       35.70076
H         35.61149       -1.38561       35.56662
H         36.48612       -2.11088       36.64146
O         34.59380       -4.21892       34.11424
H         34.71312       -4.75475       33.29164
H         34.77141       -3.28648       33.83591
O         35.55082       -7.45697       35.15458
H         35.83025       -8.28492       35.61553
H         35.89999       -7.56040       34.23533

Ca 1.70



