%chk=loop3.cluster7.chk
%nprocshared=48
%mem=10GB
%nosave
#b3lyp/svp scf=(tight,noincore) Test 
#IOP(5/87=12) Density=Current Pop=(MK,readradii) iop(6/33=2) iop(6/42=6)

loop3.cluster7 

   0  1 
C         75.64672       51.53450       23.68100
C         75.12044       50.18013       23.32529
O         75.82890       49.37920       22.73398
H         76.67760       51.68350       23.30245
H         74.97270       52.30590       23.25545
H         75.65094       51.63738       24.78955
N         73.86561       49.84859       23.71184
C         73.30826       48.51749       23.55619
C         72.85994       48.23443       22.12018
O         72.07286       48.98362       21.55965
C         72.16757       48.38119       24.55708
C         71.60997       47.01160       24.63238
O         70.66709       46.76077       25.53093
O         72.00854       46.11884       23.91089
H         73.32700       50.55178       24.24229
H         74.07574       47.77598       23.88522
H         71.35610       49.09930       24.31997
H         72.57078       48.61394       25.56983
N         73.35392       47.14087       21.47928
C         73.20374       46.86207       20.05696
C         71.92321       46.08752       19.72714
O         71.16581       46.55220       18.88722
C         74.47426       46.12184       19.61553
C         74.67595       46.10109       18.09814
C         75.88672       45.22681       17.72387
C         77.26134       45.80082       18.13074
N         77.71019       46.83918       17.20125
H         74.03880       46.58548       21.99119
H         73.20886       47.82994       19.50932
H         74.45552       45.09289       20.03420
H         75.34061       46.65616       20.05992
H         74.78769       47.13947       17.71382
H         73.77234       45.65308       17.63848
H         75.89363       45.04481       16.62896
H         75.73949       44.24547       18.22356
H         78.00520       44.97587       18.09814
H         77.26192       46.18158       19.17317
H         78.60790       47.24780       17.54839
H         77.89010       46.40460       16.26574
H         77.00156       47.59920       17.10197
N         71.59369       44.91808       20.36843
C         70.24730       44.33879       20.23399
C         69.23695       45.07785       21.10762
O         68.05531       44.76816       21.02606
C         70.18171       42.80286       20.47381
C         70.63055       42.29922       21.81273
O         70.52154       41.11089       22.06996
O         71.15645       43.12908       22.72651
H         72.21209       44.58536       21.12064
H         69.90791       44.46502       19.18186
H         70.77569       42.27346       19.70086
H         69.11997       42.48388       20.35208
N         69.61662       46.09279       21.94259
C         68.66185       46.83013       22.75269
C         68.04150       45.98997       23.85334
O         67.00945       46.37801       24.38044
H         70.59841       46.38146       21.98522
H         67.87473       47.22546       22.07665
H         69.16078       47.70028       23.23007
N         68.62832       44.82722       24.26095
C         68.03311       43.90836       25.23195
C         67.97857       44.42567       26.68067
O         67.56857       43.67088       27.55039
C         68.74494       42.52332       25.10716
C         70.17563       42.35062       25.68220
N         70.13082       41.83451       27.04918
O         70.87333       43.56449       25.65876
H         69.49918       44.54066       23.80027
H         66.99213       43.71220       24.89482
H         68.79714       42.28773       24.02460
H         68.09082       41.73622       25.53758
H         69.49533       41.00469       27.09242
H         71.07406       41.44527       27.26552
N         68.37274       45.69309       27.01503
C         68.42168       46.19108       28.38121
C         69.79847       46.04365       29.01386
O         69.94305       46.40603       30.17336
H         68.63886       46.34805       26.28600
H         67.66560       45.67510       29.00892
H         68.15248       47.27078       28.37626
N         70.84281       45.47158       28.34081
C         72.13650       45.19585       28.95540
C         73.31737       45.59641       28.06894
O         73.24161       45.50066       26.85466
C         72.23227       43.69912       29.31150
C         71.41458       43.35420       30.54174
C         72.05631       43.31576       31.79155
C         70.03345       43.08895       30.47354
C         71.33684       43.03541       32.95354
C         69.31403       42.79907       31.64380
C         69.96575       42.78081       32.88793
O         69.28443       42.52672       34.02450
H         70.69232       45.13340       27.38796
H         72.25653       45.75123       29.91110
H         73.29263       43.47632       29.55430
H         71.98325       43.05334       28.45285
H         73.11630       43.52275       31.86583
H         69.51594       43.10360       29.52359
H         71.84675       43.02425       33.90875
H         68.25185       42.59391       31.58711
H         68.32871       42.37638       34.02646
N         74.49475       45.95062       28.66018
C         75.73937       46.28240       27.96402
C         76.76650       45.19137       28.24499
O         76.78621       44.64059       29.33947
C         76.22517       47.68116       28.45260
C         75.35895       48.78583       27.79589
C         77.72965       47.92657       28.20590
C         75.55913       50.15634       28.44149
H         74.52453       45.95726       29.69112
H         75.60210       46.33873       26.86333
H         76.08626       47.71279       29.55530
H         74.28582       48.52769       27.91594
H         75.57311       48.84995       26.70309
H         78.04370       48.91653       28.59013
H         78.33165       47.18901       28.77953
H         77.98720       47.84891       27.12980
H         76.58318       50.54581       28.27580
H         74.84418       50.88181       28.00151
H         75.36429       50.08345       29.53278
N         77.67107       44.84343       27.28500
C         78.68370       43.81325       27.44173
C         80.05847       44.38261       27.17262
O         80.18195       45.55119       26.83143
C         78.40785       42.64570       26.46636
O         78.49858       43.06048       25.13359
H         77.66067       45.35596       26.39902
H         78.66554       43.39936       28.47042
H         77.41306       42.19300       26.68114
H         79.14496       41.82909       26.59867
H         77.57714       43.16958       24.80585
N         81.15026       43.58942       27.27805
C         82.49106       44.00629       26.89438
C         82.56122       44.34069       25.40590
O         83.22720       45.29361       25.03441
C         83.46459       42.86675       27.20957
H         81.01123       42.62294       27.61869
H         82.81143       44.89206       27.48917
H         84.49903       43.13280       26.91076
H         83.45294       42.66785       28.30409
H         83.15934       41.93729       26.68110
N         81.91475       43.55361       24.49980
C         81.97504       43.77187       23.05356
C         81.26663       45.05265       22.63028
O         81.80251       45.79872       21.82132
C         81.34196       42.57467       22.34119
H         81.36926       42.75337       24.85185
H         83.03800       43.79293       22.72599
H         80.26574       42.47802       22.59591
H         81.45605       42.68148       21.24174
H         81.86911       41.64612       22.65397
N         80.04219       45.35933       23.14274
C         79.29863       46.58212       22.82864
C         80.11262       47.79401       23.26959
O         80.26001       48.73493       22.50307
C         77.91319       46.56003       23.54763
C         76.99031       45.41809       23.01868
C         75.78583       45.08030       23.89460
O         75.94706       44.81878       25.06306
O         74.55274       44.90846       23.39235
H         79.64580       44.71376       23.83593
H         79.09765       46.65018       21.73622
H         77.39163       47.52902       23.42026
H         78.11904       46.44022       24.62498
H         77.58581       44.48953       22.97892
H         76.68057       45.63824       21.97510
N         80.69924       47.81087       24.49832
C         81.48660       48.92314       24.98307
H         82.36836       49.09227       24.32939
H         80.86095       49.83771       25.02734
H         81.85213       48.69772       26.00998
H         80.60217       46.99343       25.10253
Ca        72.99244       43.87035       24.74044
O         75.49506       41.96250       24.21570
H         75.49376       41.54371       23.32197
H         75.93430       41.29050       24.79285
O         74.14387       42.74493       21.58949
H         74.03138       42.65348       20.61302
H         74.91397       43.35800       21.67618
O         72.83563       40.87933       24.31799
H         71.88838       41.05370       24.10618
H         73.09763       40.16209       23.69005
O         73.90296       42.12420       26.82350
H         73.52942       41.30176       27.22607
H         74.87148       41.94368       26.74903

Ca 1.70



