%chk=loop3.cluster123.chk
%nprocshared=48
%mem=10GB
%nosave
#b3lyp/svp scf=(tight,noincore) Test 
#IOP(5/87=12) Density=Current Pop=(MK,readradii) iop(6/33=2) iop(6/42=6)

loop3.cluster123 

   0  1 
C         88.21265       79.10583       23.77435
C         89.74517       79.07310       23.70821
O         90.14619       77.72903       23.79095
H         87.79077       78.26121       23.18567
H         87.85980       79.02620       24.82266
H         87.80911       80.04661       23.34073
N         90.17944       79.68300       22.43862
C         91.62267       79.56961       22.15054
C         92.53667       80.03867       23.27178
O         93.01662       79.19365       24.00729
C         92.01575       80.17652       20.78238
C         91.51338       81.57779       20.53253
O         90.31759       81.78840       20.40310
O         92.38329       82.59667       20.39765
H         89.90674       80.68809       22.48529
H         91.82591       78.49552       22.04247
H         91.61478       79.53941       19.96826
H         93.12604       80.15866       20.71045
N         92.87851       81.34708       23.44010
C         93.76735       81.76124       24.51348
C         95.17108       81.15084       24.35899
O         95.98680       81.62990       23.58319
C         93.75279       83.28862       24.65657
C         94.46638       83.73385       25.92899
C         94.31728       85.23887       26.15242
C         95.17415       85.65259       27.35310
N         95.20956       87.10327       27.51804
H         92.47254       82.06311       22.83004
H         93.31102       81.37333       25.45088
H         92.68871       83.60576       24.72789
H         94.20316       83.77153       23.76015
H         95.54255       83.47442       25.83199
H         94.04418       83.20085       26.80984
H         93.24763       85.50597       26.32010
H         94.67617       85.77049       25.24518
H         96.21142       85.29543       27.17373
H         94.79283       85.17151       28.28299
H         94.29348       87.45255       27.87953
H         95.96418       87.33871       28.20257
H         95.43635       87.56572       26.60744
N         95.48019       80.06497       25.11809
C         96.76034       79.35606       25.14310
C         96.96214       78.34687       24.01738
O         97.99827       77.68853       24.01303
C         96.86568       78.56333       26.48132
C         95.80758       77.49212       26.69653
O         96.14448       76.32497       26.79008
O         94.50853       77.81199       26.86308
H         94.75310       79.75610       25.76165
H         97.59173       80.09666       25.13034
H         96.82202       79.26962       27.33433
H         97.86073       78.06648       26.51419
N         96.01335       78.09536       23.07774
C         96.13226       76.92841       22.21663
C         95.02455       76.81077       21.19471
O         94.29046       77.76997       20.99691
H         95.16571       78.67308       23.04351
H         96.08348       76.05238       22.89922
H         97.10337       76.92832       21.68277
N         94.81333       75.66337       20.48273
C         95.67912       74.47999       20.55576
C         94.89085       73.23038       20.12645
O         94.16092       73.33677       19.15066
C         96.86020       74.71739       19.59303
C         97.97240       73.74492       19.86220
N         98.32375       72.82027       18.94334
O         98.56162       73.79139       20.93279
H         94.04536       75.67087       19.79370
H         96.07087       74.34777       21.57887
H         97.28980       75.73231       19.72982
H         96.49517       74.66430       18.54296
H         97.83037       72.76147       18.04169
H         99.07932       72.15063       19.14950
N         94.99240       71.99083       20.71567
C         95.95486       71.58579       21.73403
C         95.57489       71.90029       23.15789
O         95.08087       72.98415       23.42327
H         94.44527       71.23066       20.28110
H         96.97274       71.93396       21.50131
H         96.02929       70.47619       21.68050
N         95.80745       70.97831       24.14594
C         95.49456       71.19710       25.55476
C         96.71646       70.94903       26.40709
O         97.49204       70.04575       26.09991
C         94.36374       70.26224       26.04749
C         93.16037       70.36998       25.15909
C         92.03010       71.09773       25.55917
C         93.18162       69.75971       23.89720
C         90.95175       71.24778       24.68157
C         92.11095       69.91065       23.02499
C         90.99727       70.66899       23.40647
O         89.97481       70.85276       22.54965
H         96.21975       70.06711       23.88450
H         95.12974       72.23799       25.71701
H         94.09681       70.57428       27.08112
H         94.68457       69.19969       26.08891
H         91.99969       71.57086       26.53171
H         94.03776       69.17495       23.58677
H         90.09119       71.83091       24.98330
H         92.15521       69.44721       22.04858
H         90.00914       70.50637       21.64610
N         96.87966       71.60981       27.58398
C         97.92698       71.26228       28.53796
C         97.48593       70.09654       29.43293
O         98.28733       69.58716       30.19643
C         98.48358       72.55068       29.21984
C         97.43894       73.27601       30.11588
C         99.79070       72.26093       29.97933
C         97.86255       74.68538       30.53731
H         96.13348       72.26547       27.86247
H         98.78349       70.84296       27.96263
H         98.74893       73.22434       28.37337
H         97.20876       72.66409       31.01443
H         96.49536       73.42599       29.56320
H        100.48938       71.68215       29.33594
H        100.30629       73.20614       30.24667
H         99.59979       71.68212       30.90585
H         98.74921       74.67014       31.20129
H         98.07980       75.30541       29.63987
H         97.02371       75.16642       31.08629
N         96.22157       69.58441       29.31006
C         95.77543       68.35686       29.95564
C         94.96619       68.66083       31.18245
O         94.80422       67.76996       32.01144
C         94.88281       67.58599       28.97152
O         95.60718       67.27135       27.81627
H         95.54301       70.05526       28.71077
H         96.65096       67.73717       30.25547
H         94.01895       68.24695       28.70779
H         94.49044       66.65515       29.43414
H         94.93438       67.01576       27.13270
N         94.45183       69.90407       31.39630
C         93.77598       70.24641       32.61981
C         92.51921       71.05586       32.39049
O         92.58341       72.27839       32.34003
C         94.76383       70.97803       33.52861
H         94.61145       70.65800       30.71173
H         93.47403       69.33690       33.18581
H         94.24962       71.38295       34.42426
H         95.54284       70.25879       33.86365
H         95.26317       71.80533       32.97904
N         91.31421       70.42716       32.50031
C         90.09937       71.10666       32.92555
C         89.53687       72.16313       31.98187
O         88.67326       72.92174       32.40175
C         90.34436       71.63217       34.34988
H         91.29383       69.39576       32.49631
H         89.30239       70.33951       33.03333
H         90.76644       70.80497       34.96751
H         91.07065       72.47035       34.36314
H         89.39692       71.95638       34.82281
N         89.91147       72.22188       30.67261
C         89.25609       73.11593       29.71472
C         87.91941       72.54101       29.26013
O         87.09509       73.29596       28.76158
C         90.14780       73.29148       28.46587
C         91.50572       73.96040       28.75044
C         91.41687       75.45787       28.88287
O         92.04891       76.17006       28.11844
O         90.66138       76.02352       29.84191
H         90.60045       71.54184       30.32026
H         89.07346       74.10532       30.18904
H         89.62755       73.85713       27.66076
H         90.34046       72.26803       28.07986
H         92.17406       73.74500       27.88901
H         91.97449       73.52275       29.65653
N         87.67718       71.19615       29.30989
C         86.44995       70.59488       28.82426
H         85.69905       71.34600       28.50134
H         86.68521       69.93948       27.95873
H         86.00088       69.97352       29.62689
H         88.40270       70.55926       29.66787
Ca        91.75881       77.35117       25.39091
O         89.43709       77.08124       26.72501
H         89.21386       77.14713       27.68524
H         88.76625       76.46507       26.34032
O         90.93409       74.60059       25.19522
H         91.31690       74.07982       24.44721
H         90.02060       74.82097       24.88884
O         93.85073       75.13932       25.10187
H         93.54772       74.28864       24.70304
H         94.81119       74.98958       25.26580
O         91.66165       79.41386       27.13470
H         91.05819       80.01141       26.62575
H         91.21425       79.27715       28.00626
O         92.29005       76.04302       23.02099
H         92.77211       76.66255       22.43555
H         92.39958       75.16905       22.57879

Ca 1.70



