%chk=loop1.cluster50.chk
%nprocshared=48
%mem=10GB
%nosave
#b3lyp/svp scf=(tight,noincore) Test 
#IOP(5/87=12) Density=Current Pop=(MK,readradii) iop(6/33=2) iop(6/42=6)

loop1.cluster50 

   0  1 
C         46.55978       37.33186        5.76212
C         46.62257       36.88313        4.33621
O         47.31850       37.49081        3.54091
H         45.51216       37.56464        6.03920
H         46.93067       36.50267        6.40414
H         47.20181       38.22123        5.93238
N         45.93874       35.77335        3.95795
C         46.09956       35.15134        2.64921
C         45.71082       36.05470        1.47518
O         44.53349       36.29180        1.24931
C         45.39779       33.76533        2.57603
C         43.95074       33.72642        3.01496
O         43.07266       33.47645        2.20699
O         43.63028       33.84065        4.31986
H         45.36830       35.31130        4.67355
H         47.18390       34.93409        2.54144
H         45.94686       33.04656        3.22148
H         45.47549       33.38751        1.53443
N         46.69720       36.52906        0.64605
C         46.48679       37.31041       -0.56678
C         47.66609       37.11510       -1.54384
O         48.28096       38.10684       -1.91098
C         46.38051       38.82156       -0.18708
C         45.01550       39.27624        0.32945
C         44.00082       39.32865       -0.83074
C         42.62372       39.83978       -0.40534
N         41.94766       38.89455        0.48205
H         47.67165       36.31207        0.88447
H         45.59963       36.95999       -1.12802
H         46.58212       39.47836       -1.06166
H         47.17332       39.03948        0.56341
H         45.12479       40.31002        0.72221
H         44.69042       38.64629        1.17231
H         43.87780       38.33813       -1.31382
H         44.39525       40.03304       -1.59791
H         42.00961       39.96784       -1.32441
H         42.71957       40.83371        0.08543
H         42.46268       38.79828        1.38496
H         40.98651       39.25000        0.68438
H         41.87144       37.96120        0.01506
N         48.04040       35.91394       -2.08768
C         47.49582       34.58287       -1.83446
C         46.00066       34.49252       -2.07314
O         45.25786       34.27637       -1.12647
C         47.94979       33.95411       -0.50231
C         49.34688       34.33195       -0.14163
O         50.25729       34.19976       -0.93904
O         49.60121       34.78024        1.09035
H         48.81379       35.94553       -2.77245
H         47.99948       33.90183       -2.55619
H         47.90051       32.86038       -0.60846
H         47.28944       34.18873        0.33777
N         45.45748       34.59421       -3.31427
C         46.23589       34.78566       -4.52316
C         45.38511       34.42854       -5.71118
O         44.87648       35.33400       -6.35614
H         44.43414       34.48641       -3.40108
H         47.14599       34.15762       -4.55705
H         46.56108       35.84913       -4.57268
N         45.17508       33.13490       -6.10497
C         45.81979       31.94980       -5.52271
C         45.30347       31.61111       -4.13274
O         44.10413       31.46782       -3.96185
C         45.58785       30.74964       -6.47543
C         46.25647       29.47574       -6.02779
O         47.55338       29.47867       -5.66465
O         45.63350       28.42557       -6.03247
H         44.58309       32.99421       -6.93919
H         46.92120       32.10093       -5.50377
H         46.02559       31.02366       -7.45876
H         44.50014       30.56350       -6.62457
N         46.18127       31.37614       -3.10995
C         45.70592       30.87377       -1.82360
C         46.81698       30.55365       -0.85036
O         46.68798       30.88374        0.32534
H         47.19142       31.47812       -3.27753
H         45.16122       29.92339       -2.00711
H         45.00143       31.59651       -1.36217
N         47.92643       29.87438       -1.25037
C         48.97562       29.45533       -0.32670
C         49.59463       30.64952        0.36681
O         50.18495       31.49011       -0.29949
C         50.07271       28.64159       -1.05792
C         49.48080       27.35623       -1.66618
O         51.09230       28.30872       -0.14426
H         48.01603       29.63553       -2.25037
H         48.52230       28.79013        0.44072
H         50.49891       29.28052       -1.86625
H         51.70602       27.66516       -0.58624
H         49.17807       26.66213       -0.85459
H         48.59554       27.55229       -2.30162
H         50.23999       26.86222       -2.30646
N         49.52393       30.75343        1.72709
C         50.14841       31.82535        2.49687
C         51.59318       31.96858        2.05783
O         51.90236       32.99971        1.49217
C         49.88935       31.64584        4.03473
C         50.48454       32.75196        4.94723
C         50.36885       30.29282        4.59516
C         50.04784       34.17661        4.62635
H         49.01082       30.01997        2.23180
H         49.62942       32.75905        2.22538
H         48.78109       31.66920        4.14720
H         51.59503       32.70959        4.91965
H         50.15993       32.54413        5.99268
H         51.47444       30.25157        4.64767
H         49.97813       30.16452        5.62613
H         50.00529       29.42646        4.01197
H         50.49287       34.86394        5.37949
H         50.41900       34.48033        3.63123
H         48.94298       34.27200        4.66883
N         52.46867       30.91740        2.14941
C         53.83206       30.86883        1.59943
C         54.85674       31.67365        2.40137
O         55.85601       31.09869        2.80376
C         53.86740       31.03746        0.05819
C         55.22423       30.63306       -0.52207
O         53.58033       32.34836       -0.34161
H         52.11614       30.04365        2.55760
H         54.15631       29.81172        1.73955
H         53.11158       30.32474       -0.35408
H         52.84868       32.30900       -1.01191
H         55.17711       30.65398       -1.63113
H         56.01974       31.32901       -0.18209
H         55.48687       29.60047       -0.20576
N         54.64124       32.97836        2.72762
C         55.41862       33.77374        3.66364
C         56.82776       34.07948        3.17831
O         57.31955       33.43060        2.26492
C         55.37110       33.13887        5.08414
C         55.29239       34.16610        6.21905
O         56.48167       32.30667        5.28429
H         53.81790       33.44300        2.37236
H         54.87022       34.73946        3.71360
H         54.42372       32.55914        5.20354
H         56.21098       31.37465        5.09449
H         54.32117       34.70460        6.16500
H         55.34654       33.64629        7.19838
H         56.10011       34.91024        6.19777
N         57.52565       35.09372        3.75803
C         58.91340       35.38168        3.48406
C         59.16194       36.64003        2.65097
O         60.10074       36.57362        1.86908
C         59.72421       35.47946        4.79617
C         59.39718       34.42173        5.86489
C         59.65423       32.96933        5.45191
C         59.29891       32.03609        6.62527
N         59.51158       30.63215        6.28134
H         57.06717       35.64555        4.47401
H         59.35609       34.52902        2.91880
H         59.50953       36.45674        5.27057
H         60.81094       35.45840        4.55642
H         58.33571       34.52967        6.16216
H         60.01214       34.65115        6.76119
H         60.72535       32.84390        5.18672
H         59.03558       32.70811        4.56708
H         58.23882       32.17806        6.92454
H         59.92230       32.29706        7.50731
H         58.88824       30.35433        5.48861
H         60.51191       30.47495        6.02243
H         59.28010       30.04287        7.11406
N         58.50672       37.85150        2.74185
C         57.27555       38.26658        3.42997
C         57.26406       38.14672        4.94763
O         56.33105       37.58203        5.50432
C         56.03120       37.68329        2.72551
C         54.78191       38.53407        2.95745
C         53.62868       37.88938        2.27731
O         53.07351       36.79002        2.80591
O         53.13749       38.39593        1.28196
H         58.91176       38.59984        2.15507
H         57.20777       39.36198        3.23701
H         55.83084       36.64892        3.02046
H         56.20694       37.68288        1.62716
H         54.95904       39.53676        2.51245
H         54.53157       38.66614        4.03174
N         58.24990       38.71869        5.68894
C         58.25727       38.67253        7.14013
H         58.26062       39.70729        7.54062
H         57.37175       38.14834        7.56107
H         59.16698       38.14180        7.48709
H         59.02112       39.20598        5.21084
Ca        51.45355       35.87737        1.60521
O         52.63651       35.63064       -1.65450
H         51.91129       35.49299       -2.31323
H         52.91599       36.57018       -1.78825
O         49.98168       37.59596        3.01056
H         49.39939       37.14382        2.34890
H         50.27951       38.41460        2.54356
O         50.63686       37.82417       -0.25898
H         49.95080       38.50642       -0.04930
H         50.64479       37.75256       -1.24584
O         54.45839       35.34824        0.75827
H         55.04621       35.61188        0.01003
H         53.94156       34.58663        0.40410

Ca 1.70



