%chk=loop4.cluster96.chk
%nprocshared=48
%mem=10GB
%nosave
#b3lyp/svp scf=(tight,noincore) Test 
#IOP(5/87=12) Density=Current Pop=(MK,readradii) iop(6/33=2) iop(6/42=6)

loop4.cluster96 

   -3  1 
C         40.29081       42.10415       42.92074
C         40.07336       41.69568       44.34663
O         40.86981       40.93698       44.86812
H         41.33424       41.86672       42.61659
H         39.57973       41.59157       42.24238
H         40.16958       43.20447       42.83596
N         39.07251       42.26752       45.07827
C         38.93082       42.09149       46.52258
C         40.19780       42.51289       47.22316
O         40.79724       41.72039       47.92763
C         38.27779       40.74196       46.96321
C         38.87519       39.47806       46.42126
O         38.29574       38.86095       45.54227
O         40.06357       39.04549       46.85805
H         38.47209       42.96882       44.62085
H         38.18704       42.83733       46.88206
H         37.23202       40.78204       46.59591
H         38.22717       40.68373       48.07518
N         40.61449       43.81127       47.10390
C         41.65813       44.46665       47.89667
C         41.19869       44.75697       49.33717
O         41.48054       45.83760       49.83524
C         43.07292       43.80750       47.85884
C         44.11747       44.85214       48.36170
C         43.44417       43.30114       46.45535
C         45.55362       44.35033       48.38931
H         40.10993       44.41087       46.43122
H         41.78695       45.46615       47.41744
H         43.07666       42.92293       48.53442
H         43.85991       45.15198       49.39822
H         44.09429       45.76500       47.72381
H         44.42632       42.78758       46.47817
H         42.71846       42.54252       46.10962
H         43.47973       44.12887       45.72055
H         45.58889       43.40244       48.94451
H         45.94987       44.18473       47.36823
H         46.20073       45.10447       48.88826
N         40.47887       43.84208       50.05514
C         40.04350       44.02527       51.42891
C         40.59958       42.98424       52.43574
O         40.73715       43.37438       53.58615
C         38.49991       44.05711       51.51034
C         37.89156       45.06881       50.57276
O         38.28789       46.35537       50.61160
O         37.02846       44.72711       49.77907
H         40.15842       43.01370       49.59570
H         40.38818       45.01867       51.79002
H         38.20948       44.33061       52.54746
H         38.07367       43.05365       51.28584
N         40.85065       41.64936       52.18347
C         40.72350       40.99551       50.89410
C         40.76484       39.47912       50.95889
O         39.73338       38.87652       50.69218
H         41.12137       41.06047       52.98622
H         41.51619       41.35340       50.20611
H         39.70669       41.21962       50.51042
N         41.87566       38.74727       51.26990
C         43.20527       39.27601       51.57429
C         43.99419       39.47102       50.28215
O         43.89901       38.60830       49.42138
C         43.92087       38.23635       52.46163
C         45.25176       38.69221       52.98447
O         45.33057       39.74406       53.82057
O         46.25959       38.06870       52.70918
H         41.76311       37.71904       51.27154
H         43.10121       40.20149       52.16410
H         44.04592       37.29117       51.88559
H         43.28463       38.02127       53.34540
N         44.79430       40.55563       50.03776
C         45.18113       41.54911       51.03244
C         46.67360       41.87202       50.95224
O         47.01236       43.04459       50.89070
H         45.19809       40.64625       49.09855
H         44.94075       41.23112       52.04674
H         44.60435       42.47918       50.84853
N         47.61504       40.88396       50.84501
C         49.00759       41.15920       50.45359
C         49.08997       40.92295       48.96157
O         49.76810       40.01688       48.50196
C         50.06488       40.40096       51.31196
C         49.77024       38.94175       51.70849
C         49.65483       37.96562       50.56750
N         48.47685       37.35207       50.30745
O         50.63671       37.70522       49.88892
H         47.28986       39.90707       50.82932
H         49.26612       42.23569       50.56497
H         50.14682       40.94692       52.27643
H         51.06073       40.48213       50.81865
H         48.84324       38.94102       52.31603
H         50.58775       38.58510       52.37519
H         47.64094       37.56897       50.85991
H         48.39512       36.66810       49.54293
N         48.35251       41.73367       48.14502
C         48.07901       41.48458       46.74001
C         49.30470       41.08000       45.94972
O         49.32259       40.01744       45.34493
C         46.79219       40.61648       46.63173
C         46.90366       39.22719       47.28156
C         46.27762       40.49248       45.19550
H         47.82392       42.50228       48.57666
H         47.78082       42.46227       46.29665
H         46.01278       41.18181       47.18008
H         45.91908       38.71557       47.24049
H         47.65735       38.60022       46.76560
H         47.16807       39.30004       48.35426
H         46.96186       39.88766       44.56971
H         45.28328       39.99793       45.20223
H         46.15417       41.49905       44.74330
N         50.36160       41.94110       45.87467
C         51.53637       41.70337       45.05034
C         51.12038       41.62211       43.58468
O         50.79901       42.65253       43.00371
C         52.37018       40.51056       45.58731
C         53.68635       40.40545       44.85256
N         54.03898       39.26665       44.21502
O         54.44907       41.36060       44.84500
H         50.31006       42.83169       46.39312
H         52.20324       42.58867       45.14943
H         51.81104       39.55237       45.55010
H         52.60034       40.69123       46.65842
H         53.41671       38.44660       44.20546
H         54.94862       39.20823       43.73718
N         51.01363       40.42361       42.95104
C         50.55617       40.25936       41.57511
C         50.15999       38.81536       41.30987
O         50.00964       38.04805       42.25692
C         51.55266       40.86726       40.55739
C         53.00691       40.60374       40.83115
C         53.54638       39.30598       40.83970
C         53.84761       41.70340       41.06024
C         54.91694       39.12394       41.07335
C         55.20446       41.52056       41.29300
C         55.74734       40.23146       41.30147
O         57.06215       40.05087       41.53432
H         51.22613       39.57483       43.48915
H         49.59424       40.80260       41.42762
H         51.38802       41.96434       40.57869
H         51.32532       40.58020       39.51524
H         52.91519       38.44290       40.66693
H         53.44777       42.70979       41.05153
H         55.33440       38.12498       41.08536
H         55.83227       42.38499       41.46415
H         57.64941       40.80115       41.70950
N         49.81399       38.41141       40.05508
C         49.12001       37.16976       39.77076
C         47.61771       37.31918       40.07040
O         46.85647       36.39874       39.82299
C         49.85292       35.95458       40.38151
C         49.72181       34.70397       39.50856
C         50.41626       33.53786       40.14698
O         49.71994       32.42639       40.44743
O         51.61137       33.58993       40.39430
H         49.92944       39.05803       39.26192
H         49.16213       37.05421       38.66504
H         49.49934       35.77246       41.41947
H         50.94349       36.18109       40.41573
H         50.19717       34.90302       38.51959
H         48.65406       34.45890       39.34303
N         47.12878       38.53372       40.48495
C         45.73903       38.94858       40.36702
C         45.72647       40.21936       39.51448
O         45.05685       40.23663       38.49054
C         45.03664       39.15223       41.72000
C         44.87613       37.81216       42.48724
C         43.55332       37.76705       43.19221
O         43.48111       37.69228       44.52477
O         42.52206       37.87806       42.54670
H         47.78381       39.27276       40.73372
H         45.13928       38.17799       39.83375
H         44.02729       39.52610       41.43648
H         45.49109       39.93777       42.36465
H         45.73389       37.66983       43.18187
H         44.84481       36.95362       41.78751
N         46.52761       41.28599       39.83177
C         46.71491       42.42637       38.95473
H         47.77369       42.43783       38.60998
H         46.06750       42.38992       38.05482
H         46.52112       43.36749       39.50808
H         47.09478       41.26639       40.69165
Ca        41.49335       38.33484       45.30030
O         43.15130       39.76012       46.83681
H         42.40925       40.39626       46.94134
H         42.82162       38.95558       47.30658
O         40.19997       35.59037       44.16292
H         40.65777       35.17828       43.38759
H         39.30145       35.17434       44.17151
O         41.68675       36.28851       47.23217
H         40.88500       36.02716       47.75012
H         42.43143       36.26357       47.88344
O         39.51138       38.22056       42.86705
H         39.18922       37.39481       42.42618
H         38.93624       38.93796       42.50152

Ca 1.70



