%chk=loop2.cluster232.chk
%nprocshared=48
%mem=10GB
%nosave
#b3lyp/svp scf=(tight,noincore) Test 
#IOP(5/87=12) Density=Current Pop=(MK,readradii) iop(6/33=2) iop(6/42=6)

loop2.cluster232 

   -2  1 
C         80.36519       41.80309       50.21256
C         78.98787       41.93774       49.63662
O         78.16937       41.05355       49.84567
H         81.01557       42.64977       49.90753
H         80.31910       41.76401       51.32027
H         80.81688       40.86336       49.83025
N         78.66080       43.02673       48.88503
C         77.37175       43.16732       48.21505
C         76.50186       44.23063       48.84544
O         76.89976       44.88157       49.80406
C         77.54204       43.32339       46.68351
C         78.70395       44.17877       46.26355
O         79.56500       43.71051       45.53429
O         78.81411       45.44837       46.69483
H         79.35578       43.78132       48.77809
H         76.75328       42.25541       48.36757
H         76.61445       43.71972       46.22294
H         77.70088       42.31028       46.25570
N         75.20461       44.31921       48.42860
C         74.16209       44.99391       49.19000
C         74.01847       44.30455       50.55514
O         74.57430       43.22872       50.73494
C         72.83251       44.92012       48.39412
H         74.92367       43.76353       47.60868
H         74.44625       46.05367       49.32831
H         72.74113       45.80099       47.72385
H         72.77563       44.00936       47.76065
H         71.93412       44.85450       49.03248
N         73.29901       44.84105       51.58652
C         72.61005       46.13256       51.53043
C         73.58616       47.29066       51.43465
O         74.78396       47.08270       51.53050
C         71.75578       46.35152       52.78818
C         70.88510       45.18322       53.11999
O         71.04994       44.63473       54.32788
O         70.05623       44.74811       52.33596
H         73.23902       44.28611       52.45578
H         71.92185       46.14337       50.67112
H         71.12500       47.25705       52.67954
H         72.43227       46.50723       53.66154
N         73.12628       48.55890       51.25493
C         73.99884       49.72293       51.24103
C         75.04063       49.63229       50.14455
O         74.69643       49.17790       49.06341
H         72.11386       48.71005       51.13509
H         74.43816       49.82662       52.24768
H         73.37343       50.61618       51.03765
N         76.34532       50.01040       50.30925
C         76.93292       50.63243       51.49708
C         77.89435       49.66877       52.18105
O         78.51353       50.05302       53.16335
C         77.65887       51.92933       51.06577
C         76.72453       53.02354       50.59393
N         77.23095       54.13746       50.01621
O         75.51515       52.91589       50.73952
H         76.98628       49.83965       49.51667
H         76.18953       50.91500       52.26504
H         78.36515       51.67349       50.24683
H         78.24992       52.35310       51.90707
H         78.24589       54.23241       49.86528
H         76.60479       54.89269       49.69880
N         78.01900       48.37345       51.75417
C         78.81731       47.38410       52.45363
C         78.27885       47.20145       53.83903
O         79.03443       47.32703       54.79488
H         77.48796       48.04271       50.93982
H         79.88651       47.68750       52.47545
H         78.73281       46.41611       51.91589
N         76.94608       46.97615       54.02502
C         76.33549       46.96410       55.33866
C         75.66760       45.64704       55.61963
O         75.28235       44.92721       54.70346
C         75.42079       48.18671       55.52839
C         75.00011       48.35829       56.99232
O         76.14505       49.33179       55.15455
H         76.33961       46.88755       53.20445
H         77.14199       47.06555       56.09508
H         74.51389       48.06991       54.88530
H         75.55865       49.87901       54.57171
H         74.42816       49.30041       57.11269
H         74.36564       47.51644       57.33583
H         75.90456       48.41968       57.63943
N         75.69137       45.20218       56.89605
C         75.43758       43.83896       57.29687
C         74.43242       43.79723       58.43542
O         74.10603       44.83408       59.00158
C         76.80548       43.21374       57.74886
C         77.83680       43.03742       56.59899
C         77.49510       44.09118       58.83008
C         77.33521       42.25346       55.38918
H         76.02922       45.85259       57.61800
H         75.00105       43.24624       56.46159
H         76.59552       42.20947       58.17444
H         78.71797       42.49559       57.01144
H         78.18903       44.02726       56.23426
H         78.40788       43.60446       59.22488
H         77.84048       45.05966       58.39931
H         76.81265       44.31846       59.67380
H         78.16813       42.13502       54.66341
H         76.96452       41.25369       55.68733
H         76.53266       42.80473       54.86717
N         73.93278       42.60218       58.84944
C         73.03108       42.44563       59.98360
C         72.87991       40.97378       60.33508
O         72.50041       40.16477       59.49756
C         71.67305       43.14164       59.76371
C         70.98826       42.70187       58.51173
O         70.90805       43.56201       57.49544
O         70.53746       41.57562       58.39331
H         74.23631       41.76255       58.34905
H         73.49766       42.94655       60.85877
H         71.86133       44.23231       59.68089
H         71.00098       43.00551       60.63798
N         73.18018       40.56847       61.59439
C         73.09594       39.18964       62.05056
C         74.15762       38.31660       61.36829
O         75.30678       38.74227       61.33238
C         73.35857       39.18166       63.57256
C         73.16203       37.81297       64.15294
C         74.26581       36.99707       64.44464
C         71.86296       37.33483       64.38201
C         74.06729       35.70860       64.94682
C         71.66936       36.05139       64.89336
C         72.77006       35.23634       65.17141
H         73.45518       41.29195       62.27783
H         72.06284       38.82690       61.87519
H         72.66910       39.88399       64.09313
H         74.39218       39.54840       63.76213
H         75.27332       37.35084       64.26047
H         71.00536       37.95893       64.16033
H         74.91819       35.07391       65.15493
H         70.66551       35.68798       65.06730
H         72.61721       34.23823       65.55787
N         73.89622       37.05342       60.87962
C         74.94479       36.17108       60.38006
C         75.52274       36.59275       59.04123
O         76.47073       35.97692       58.57683
C         74.22977       34.82161       60.21172
C         73.08140       34.92598       61.20320
C         72.63315       36.36961       61.01524
H         75.72840       36.10519       61.17069
H         73.75326       34.77989       59.20566
H         74.88577       33.93138       60.32866
H         72.27323       34.17900       61.05580
H         73.49841       34.81988       62.22821
H         72.07963       36.48174       60.05726
H         72.00741       36.67711       61.86582
N         74.95272       37.61535       58.34340
C         75.45246       38.08467       57.05799
C         76.87456       38.59519       57.21337
O         77.65225       38.48649       56.27492
C         74.55767       39.22978       56.54234
C         73.09298       38.81594       56.28100
C         72.22734       39.98844       55.89599
O         71.04960       39.80713       55.63180
O         72.72966       41.23924       55.86003
H         74.13719       38.08985       58.74460
H         75.42997       37.25564       56.31512
H         74.97636       39.64768       55.60191
H         74.57962       40.01168       57.31171
H         72.63285       38.35998       57.18245
H         73.07225       38.06486       55.46407
N         77.28180       39.15489       58.39120
C         78.62968       39.62201       58.63020
H         79.29549       39.47814       57.75483
H         78.59764       40.70025       58.88679
H         79.05695       39.06662       59.49270
H         76.61088       39.24508       59.16652
Ca        70.15204       42.98620       55.48989
O         68.86847       41.53629       53.54176
H         69.34298       41.78348       52.70883
H         67.96736       41.25114       53.25144

Ca 1.70



