%chk=loop1.cluster4.chk
%nprocshared=48
%mem=10GB
%nosave
#b3lyp/svp scf=(tight,noincore) Test 
#IOP(5/87=12) Density=Current Pop=(MK,readradii) iop(6/33=2) iop(6/42=6)

loop1.cluster4 

   0  1 
C         58.50083      -21.49862       31.73536
C         58.72915      -22.97083       31.55258
O         58.26790      -23.54002       30.57602
H         57.43341      -21.29643       31.95656
H         59.11341      -21.11132       32.57921
H         58.81335      -20.95638       30.81993
N         59.41769      -23.65557       32.49976
C         59.75607      -25.07025       32.41880
C         58.94514      -25.87395       33.41234
O         59.31474      -27.00393       33.70610
C         61.27937      -25.24812       32.65700
C         61.81146      -24.71110       33.95664
O         62.37274      -25.55125       34.84806
O         61.81614      -23.50932       34.17346
H         59.67157      -23.14912       33.35682
H         59.53315      -25.50004       31.42132
H         61.84243      -24.75077       31.84530
H         61.51190      -26.32875       32.63006
N         57.81754      -25.35431       33.97718
C         57.12358      -26.01736       35.06023
C         55.63045      -26.17775       34.76762
O         54.86228      -25.38300       35.29402
C         57.37397      -25.17624       36.33733
C         58.88123      -25.10669       36.65329
C         59.15776      -24.39583       37.98216
C         60.65706      -24.34189       38.33124
N         61.41198      -23.52743       37.38254
H         57.49107      -24.41364       33.71115
H         57.56038      -26.99602       35.29560
H         56.84576      -25.65397       37.19023
H         56.98004      -24.14101       36.21061
H         59.39179      -24.56970       35.82767
H         59.28821      -26.13974       36.71506
H         58.64072      -24.95767       38.78876
H         58.75071      -23.36225       37.95274
H         61.08152      -25.37180       38.35995
H         60.76599      -23.89643       39.34206
H         62.39759      -23.41588       37.71158
H         61.43663      -24.01856       36.47413
H         60.97315      -22.58616       37.26092
N         55.08295      -27.18554       34.00480
C         55.75490      -28.27147       33.27046
C         56.53254      -29.23940       34.17333
O         56.53496      -29.03238       35.37864
C         56.49348      -27.69755       32.03161
C         56.15667      -28.40291       30.74462
O         57.14752      -28.74909       29.88683
O         54.98755      -28.58862       30.44834
H         54.05223      -27.18029       33.93025
H         54.91728      -28.88618       32.87459
H         57.58502      -27.66109       32.15820
H         56.13196      -26.66056       31.86176
N         57.15560      -30.37172       33.72121
C         57.17568      -30.80644       32.33156
C         57.81156      -32.17597       32.19436
O         57.54360      -33.01620       33.03768
H         57.61053      -30.97164       34.42599
H         57.74269      -30.08031       31.74758
H         56.12873      -30.89386       31.97166
N         58.60393      -32.54347       31.13787
C         58.90462      -31.73583       29.95073
C         59.74373      -30.48806       30.21049
O         59.80825      -29.63682       29.33791
C         59.59665      -32.63076       28.88822
C         60.86669      -33.27239       29.40753
O         61.90783      -32.64727       29.45309
O         60.84220      -34.53449       29.87317
H         58.93311      -33.52067       31.14817
H         57.93029      -31.40246       29.52642
H         59.78933      -32.09506       27.93161
H         58.88862      -33.45374       28.64970
N         60.40290      -30.31263       31.39254
C         61.11556      -29.08301       31.72682
C         62.31179      -28.72924       30.85605
O         62.89500      -27.67523       31.08416
H         60.35160      -31.04398       32.11050
H         61.45876      -29.15185       32.77984
H         60.38923      -28.24489       31.65605
N         62.72065      -29.50816       29.81436
C         63.70474      -29.05373       28.83477
C         63.17378      -27.79932       28.20599
O         62.07637      -27.82783       27.66856
C         63.99188      -30.10215       27.72187
C         64.94329      -29.52351       26.66313
O         62.82317      -30.48870       27.04274
H         62.26356      -30.40545       29.67421
H         64.66921      -28.84566       29.35369
H         64.48361      -30.98751       28.18672
H         62.29627      -31.07177       27.63832
H         65.85575      -29.09295       27.12527
H         65.23141      -30.30892       25.93557
H         64.42515      -28.72002       26.09209
N         63.89659      -26.65308       28.24797
C         63.36707      -25.39301       27.76902
C         64.14502      -24.93785       26.55648
O         65.18154      -24.29763       26.67037
C         63.15575      -24.40982       28.95058
C         62.65844      -23.01377       28.52072
C         64.38434      -24.26099       29.86471
C         61.42987      -23.03783       27.61189
H         64.84741      -26.67531       28.64689
H         62.33859      -25.55050       27.38714
H         62.36387      -24.87632       29.57832
H         63.47137      -22.46716       27.99804
H         62.39309      -22.45160       29.44313
H         64.12536      -23.62070       30.73421
H         64.69218      -25.23825       30.29156
H         65.23997      -23.81208       29.32200
H         61.67087      -23.50304       26.63417
H         60.59949      -23.59296       28.08921
H         61.10026      -21.99752       27.41542
N         63.68430      -25.33129       25.33459
C         64.30351      -25.02501       24.05505
C         63.33107      -24.29048       23.12270
O         63.75599      -23.85235       22.06279
C         64.77337      -26.36548       23.41335
C         63.60147      -27.30235       23.04618
O         65.60982      -27.04832       24.31106
H         62.84966      -25.93024       25.32420
H         65.19226      -24.37165       24.21584
H         65.33372      -26.17558       22.46923
H         66.43247      -26.50419       24.41461
H         62.93292      -27.51608       23.90345
H         62.98969      -26.86818       22.23100
H         63.98892      -28.28117       22.69806
N         61.99567      -24.17198       23.43825
C         60.97630      -23.56223       22.58675
C         60.78151      -24.32533       21.28240
O         61.59046      -25.17581       20.93474
C         61.20837      -22.03167       22.46285
C         60.90265      -21.36473       23.81576
O         60.37216      -21.46414       21.48826
H         61.64866      -24.55837       24.32025
H         60.00405      -23.69442       23.10752
H         62.26879      -21.86460       22.17388
H         60.74232      -20.56852       21.27210
H         61.25880      -20.31508       23.82280
H         59.80193      -21.36164       23.98896
H         61.37941      -21.90680       24.65832
N         59.65644      -24.10190       20.54061
C         59.37190      -24.77632       19.28713
C         58.06666      -25.58589       19.15147
O         57.96118      -26.19572       18.09596
C         59.46892      -23.73051       18.15081
C         60.92964      -23.28501       18.00850
C         61.18737      -22.39012       16.79817
C         62.68907      -22.06960       16.74062
N         63.00395      -21.15513       15.64834
H         59.02563      -23.36338       20.84305
H         60.15000      -25.54699       19.09282
H         58.79714      -22.86297       18.35342
H         59.16058      -24.18442       17.18583
H         61.55546      -24.19572       17.88280
H         61.24831      -22.75454       18.93208
H         60.59458      -21.45517       16.88953
H         60.88661      -22.91841       15.86488
H         63.26488      -23.01494       16.60897
H         63.00236      -21.60384       17.70121
H         64.03146      -20.96015       15.66216
H         62.74871      -21.58469       14.73015
H         62.48790      -20.25566       15.78169
N         57.01991      -25.72123       20.03575
C         56.74070      -25.11875       21.33525
C         56.64216      -23.60883       21.22986
O         57.11700      -22.89223       22.10056
C         57.57837      -25.75263       22.48353
C         56.88262      -25.60030       23.84880
C         57.55631      -26.34542       24.97466
O         58.63872      -25.97694       25.40191
O         56.88366      -27.33908       25.59643
H         56.25200      -26.32460       19.69442
H         55.69482      -25.43753       21.55155
H         58.61190      -25.37453       22.50731
H         57.62873      -26.84647       22.29063
H         55.85672      -26.02041       23.75380
H         56.78736      -24.53182       24.13255
N         56.06617      -23.06113       20.12039
C         56.05135      -21.63738       19.87424
H         55.46168      -21.11315       20.65215
H         57.09279      -21.24925       19.85499
H         55.59563      -21.44172       18.87859
H         55.67210      -23.67975       19.39620
Ca        57.22686      -27.93710       27.76403
O         54.54263      -27.93085       27.32149
H         54.66727      -28.01949       28.29238
H         54.23892      -28.82842       27.04433
O         59.78120      -29.01192       26.13967
H         59.55462      -29.74037       25.51077
H         60.41488      -29.43413       26.76900
O         59.56346      -26.26538       28.86282
H         59.41831      -25.31840       29.10018
H         60.50776      -26.28490       28.58557
O         57.30636      -30.60758       26.86517
H         57.66917      -31.06776       26.06849
H         56.82849      -31.31288       27.36695
O         56.68502      -25.41591       28.49072
H         57.02092      -24.51951       28.24448
H         56.54114      -25.38625       29.46936

Ca 1.70



