%chk=loop4.cluster54.chk
%nprocshared=48
%mem=10GB
%nosave
#b3lyp/svp scf=(tight,noincore) Test 
#IOP(5/87=12) Density=Current Pop=(MK,readradii) iop(6/33=2) iop(6/42=6)

loop4.cluster54 

   -3  1 
C         60.24387       21.26636       51.76635
C         60.99255       20.66394       52.92196
O         61.36305       21.38896       53.83319
H         59.30905       21.74372       52.12859
H         60.87659       22.03206       51.27129
H         59.97265       20.49708       51.01226
N         61.24322       19.32275       52.95055
C         61.96329       18.64238       54.02789
C         61.24656       18.83525       55.34441
O         61.85737       19.22654       56.33105
C         63.43052       19.10255       54.09531
C         64.06567       18.96076       52.75709
O         64.44502       20.06139       52.08296
O         64.19396       17.85597       52.25445
H         60.90039       18.74180       52.17015
H         61.95530       17.55286       53.79120
H         64.00461       18.50534       54.83773
H         63.47659       20.16828       54.40188
N         59.91759       18.57038       55.41543
C         59.11788       18.76694       56.61671
C         58.77884       17.39323       57.16893
O         58.57868       16.48121       56.37818
C         57.87945       19.64398       56.25241
C         58.37534       21.08899       55.96294
C         56.79074       19.63008       57.33700
C         57.27954       22.12261       55.70746
H         59.44437       18.20727       54.57174
H         59.72105       19.29361       57.37923
H         57.39636       19.21517       55.34497
H         59.04100       21.06193       55.07674
H         58.96818       21.45957       56.82915
H         56.48036       18.58885       57.56577
H         57.12396       20.14066       58.25931
H         55.88046       20.14007       56.95860
H         56.68475       22.29403       56.63037
H         57.75365       23.09094       55.43847
H         56.61258       21.80188       54.88261
N         58.79358       17.10675       58.50751
C         58.90600       18.08427       59.59654
C         60.25927       18.04515       60.28725
O         60.70421       19.09167       60.73642
C         57.73924       17.93760       60.59866
C         57.48464       16.51794       61.03599
O         58.39758       15.81602       61.43874
O         56.23828       16.01124       60.96306
H         58.68873       16.11641       58.77039
H         58.82735       19.12454       59.23349
H         56.80089       18.31191       60.13359
H         57.94210       18.57487       61.48622
N         61.00690       16.90729       60.34876
C         62.39341       16.91282       60.78455
C         62.63091       17.44079       62.17879
O         62.24994       16.80599       63.15364
H         60.62506       16.02683       59.98164
H         62.96059       17.54109       60.06498
H         62.81567       15.88900       60.72077
N         63.30639       18.61420       62.32629
C         63.75600       19.14798       63.60274
C         62.88638       20.28416       64.10613
O         63.04194       20.66957       65.25355
C         65.24060       19.60667       63.46824
C         65.52123       20.68155       62.42230
O         64.62968       21.16211       61.73923
O         66.78392       21.10792       62.23637
H         63.52453       19.14194       61.47207
H         63.69453       18.35262       64.37991
H         65.85347       18.72302       63.19194
H         65.60479       19.98523       64.44762
N         61.97796       20.90087       63.29319
C         61.19260       22.04880       63.72474
C         62.03140       23.27045       64.07991
O         61.45199       24.26911       64.48914
H         61.84464       20.57060       62.33337
H         60.58445       21.75435       64.60736
H         60.49345       22.32846       62.90666
N         63.39682       23.27080       63.96910
C         64.27206       24.33791       64.42213
C         64.01200       25.63794       63.70015
O         63.92247       26.67270       64.33874
C         64.20168       24.48693       65.96049
C         64.86045       23.30338       66.67823
C         64.68102       23.37528       68.17441
N         64.95689       22.29401       68.93611
O         64.25876       24.39444       68.70261
H         63.86637       22.45965       63.56696
H         65.31824       24.06424       64.15604
H         63.13647       24.56670       66.27016
H         64.72820       25.40393       66.29393
H         65.94765       23.26451       66.43819
H         64.39979       22.36717       66.32206
H         65.27442       21.41571       68.50079
H         64.81083       22.32658       69.95558
N         63.98073       25.65776       62.33604
C         63.88552       26.91180       61.60296
C         65.23882       27.18543       60.97144
O         65.69777       26.42521       60.13440
C         62.72901       26.88795       60.57528
C         61.39349       26.60303       61.28415
C         62.62793       28.22867       59.82334
H         64.08329       24.77907       61.81027
H         63.66147       27.74640       62.29992
H         62.92336       26.08798       59.82827
H         60.54701       26.65122       60.56755
H         61.40333       25.59109       61.74057
H         61.21532       27.34881       62.09083
H         61.88014       28.14525       59.00648
H         62.31958       29.04922       60.50702
H         63.59745       28.50438       59.35822
N         65.93391       28.28355       61.37836
C         67.22977       28.68553       60.84201
C         67.13719       29.03200       59.36452
O         66.28206       29.80780       58.97067
C         67.72014       29.92041       61.63439
C         68.92715       30.60368       61.03481
N         70.10379       29.95437       60.88924
O         68.83184       31.76696       60.67201
H         65.51558       28.86932       62.11463
H         67.97609       27.87428       60.99644
H         67.94547       29.60909       62.67873
H         66.89752       30.66763       61.66937
H         70.20783       28.97473       61.18736
H         70.91196       30.44172       60.47313
N         68.06734       28.52331       58.50700
C         68.16958       28.91655       57.10211
C         69.20016       28.03950       56.42392
O         70.33753       27.98847       56.86703
C         68.62625       30.39008       56.97313
C         69.05278       30.78799       55.56497
C         68.12269       30.91650       54.51679
C         70.41263       31.04417       55.30554
C         68.54804       31.33310       53.24473
C         70.83275       31.44802       54.03723
C         69.90007       31.61171       53.00667
O         70.29295       32.04781       51.79156
H         68.76929       27.87046       58.88600
H         67.19109       28.78057       56.59553
H         69.50134       30.51785       57.64650
H         67.83986       31.08699       57.33247
H         67.07233       30.72001       54.68771
H         71.15023       30.93052       56.08946
H         67.82643       31.45594       52.44628
H         71.88322       31.64461       53.85983
H         71.20977       32.30944       51.61804
N         68.85261       27.35779       55.29789
C         69.80833       26.56204       54.54106
C         70.01492       27.15966       53.14160
O         71.13407       27.58546       52.88804
C         69.42125       25.06395       54.54235
C         70.49481       24.18484       53.87537
C         71.68543       24.00185       54.77385
O         72.78690       24.39970       54.43210
O         71.54058       23.36549       55.95315
H         67.89044       27.44782       54.96377
H         70.79623       26.60528       55.04940
H         68.46570       24.90611       54.02950
H         69.25144       24.70807       55.58242
H         70.79100       24.62380       52.89712
H         70.07806       23.17636       53.67550
N         69.06977       27.22140       52.14536
C         67.68839       26.74848       52.20713
C         66.71195       27.81170       51.70878
O         67.14346       28.85823       51.24686
C         67.58432       25.43788       51.41202
C         67.90810       25.53549       49.90959
C         67.74007       24.16156       49.33616
O         66.57200       23.53703       49.58707
O         68.65448       23.59777       48.75218
H         69.38180       27.59339       51.23574
H         67.37945       26.50771       53.22694
H         66.55989       25.03908       51.54778
H         68.27714       24.69172       51.85405
H         68.93887       25.91117       49.73549
H         67.18215       26.21956       49.42218
N         65.36332       27.59870       51.77389
C         64.39862       28.57013       51.28918
H         63.47883       28.53010       51.91151
H         64.79229       29.60775       51.34062
H         64.11831       28.32792       50.24210
H         65.00501       26.71836       52.17078
Ca        65.37913       21.62535       49.59159
O         66.81309       21.62514       51.98683
H         66.64044       21.56728       52.95905
H         67.78073       21.81233       51.90458
O         63.79209       23.39666       48.05780
H         63.49535       22.92464       47.24007
H         63.68230       24.35802       47.85297
O         64.18596       23.78723       51.05988
H         64.07059       23.62445       52.02854
H         64.39089       24.75187       50.98421
O         65.53720       21.00850       47.04677
H         65.86406       21.79634       46.54613
H         65.25573       20.34927       46.36836
O         64.69158       18.86940       49.14895
H         64.85044       18.69375       50.10430
H         64.95194       18.02149       48.71547
O         67.54745       19.91674       49.33317
H         68.16106       20.64128       49.05413
H         67.18459       19.56081       48.48393

Ca 1.70



