%chk=loop2.cluster126.chk
%nprocshared=48
%mem=10GB
%nosave
#b3lyp/svp scf=(tight,noincore) Test 
#IOP(5/87=12) Density=Current Pop=(MK,readradii) iop(6/33=2) iop(6/42=6)

loop2.cluster126 

   -2  1 
C         91.15824       83.15133       29.42834
C         92.30919       83.27118       30.36996
O         93.07933       84.21401       30.24201
H         90.42683       83.96145       29.63088
H         91.53641       83.24624       28.38959
H         90.65979       82.16693       29.53936
N         92.46526       82.37339       31.38733
C         93.57652       82.44434       32.32297
C         93.07313       83.10814       33.59455
O         93.23956       82.59437       34.69225
C         94.17976       81.02694       32.44543
C         95.56569       80.93508       33.01942
O         96.22633       82.03440       33.42821
O         96.12402       79.84927       33.05536
H         91.74747       81.64669       31.53251
H         94.35883       83.12007       31.91204
H         94.26360       80.61993       31.41407
H         93.48199       80.37422       33.01460
N         92.44931       84.31630       33.46606
C         91.94808       85.13945       34.55000
C         90.53122       85.62502       34.21965
O         90.14680       85.57174       33.05891
C         92.87934       86.35905       34.57832
H         92.37037       84.71624       32.52467
H         91.98198       84.59201       35.51727
H         93.92314       86.01827       34.74411
H         92.84378       86.87461       33.59072
H         92.62535       87.10235       35.35146
N         89.72234       86.22546       35.13885
C         90.01979       86.32112       36.56131
C         89.72721       85.02928       37.30239
O         89.13411       84.11761       36.74151
C         89.21254       87.47892       37.17547
C         89.58763       88.77739       36.51682
O         90.87226       89.18229       36.51144
O         88.73649       89.45823       35.96881
H         88.86218       86.67539       34.79017
H         91.08565       86.54939       36.70763
H         89.42582       87.56215       38.26001
H         88.12491       87.29280       37.04676
N         90.14420       84.89655       38.59634
C         89.86299       83.73349       39.42239
C         90.40756       82.45369       38.82638
O         91.41582       82.50648       38.13785
H         90.68212       85.66562       39.02141
H         88.77302       83.66877       39.57776
H         90.33157       83.87758       40.42096
N         89.84172       81.23570       39.08091
C         88.72559       81.03226       40.00652
C         87.37609       81.46627       39.44038
O         86.39105       81.40593       40.16360
C         88.61888       79.54802       40.42316
C         89.89967       79.03195       41.04528
N         89.94508       78.70266       42.35501
O         90.90440       78.90603       40.36193
H         90.28565       80.41132       38.65076
H         88.93479       81.60708       40.93737
H         88.35143       78.91252       39.55016
H         87.79497       79.46159       41.16616
H         89.11612       78.81051       42.95569
H         90.82345       78.35663       42.76867
N         87.24775       81.89334       38.15105
C         85.96981       82.27759       37.58150
C         85.37613       83.44275       38.32048
O         84.25384       83.33657       38.79752
H         88.07105       81.93246       37.53886
H         85.27323       81.41111       37.60108
H         86.12340       82.56823       36.52179
N         86.08162       84.60020       38.44947
C         85.56282       85.76533       39.14524
C         85.39866       86.84468       38.10058
O         86.00306       87.89930       38.20832
C         86.53802       86.17514       40.28399
C         85.84658       87.08803       41.30155
O         86.99804       85.03646       40.96128
H         87.01507       84.66591       38.02237
H         84.56820       85.53572       39.58926
H         87.41654       86.68598       39.81858
H         87.81077       85.31915       41.46072
H         86.57705       87.40319       42.07637
H         85.41190       87.98977       40.82634
H         85.03471       86.51718       41.80505
N         84.61796       86.60837       37.01230
C         84.52547       87.52098       35.87572
C         83.29426       88.40941       35.98714
O         82.43743       88.17386       36.83060
C         84.53213       86.75023       34.50244
C         85.92882       86.29363       34.01920
C         83.52999       85.57120       34.46338
C         86.61091       85.22857       34.86799
H         84.07528       85.73525       37.00194
H         85.38340       88.23406       35.89199
H         84.20916       87.47313       33.72249
H         86.59567       87.17897       33.95145
H         85.82078       85.88220       32.99055
H         82.51409       85.91024       34.74815
H         83.49138       85.12648       33.44787
H         83.81689       84.74263       35.14366
H         87.55459       84.92342       34.37216
H         86.84000       85.63109       35.87135
H         85.99680       84.31580       34.94960
N         83.17661       89.49334       35.16611
C         82.04018       90.41870       35.15612
C         81.35003       90.39016       33.80918
O         81.69113       89.56234       32.98615
C         82.49522       91.83667       35.58030
C         83.73207       92.29666       34.88071
O         84.86560       92.28991       35.61175
O         83.73621       92.56968       33.68812
H         83.95057       89.68049       34.50902
H         81.26686       90.10901       35.89144
H         82.77549       91.74327       36.65006
H         81.69180       92.60099       35.53890
N         80.31629       91.23368       33.54431
C         79.41083       91.14547       32.40256
C         80.08481       91.04300       31.02483
O         79.92719       90.03456       30.35801
C         78.35495       90.05880       32.70304
C         76.98235       90.42814       32.18191
C         76.60985       90.18822       30.85088
C         76.05494       91.02865       33.05864
C         75.31791       90.51524       30.41612
C         74.77517       91.36291       32.61708
C         74.40190       91.09722       31.29966
H         80.05093       91.90974       34.27566
H         78.83534       92.09539       32.41150
H         78.24332       90.04561       33.80992
H         78.66768       89.02410       32.44684
H         77.30599       89.73436       30.15957
H         76.32839       91.24423       34.08515
H         75.02322       90.31286       29.39536
H         74.07214       91.82328       33.30050
H         73.40286       91.34394       30.96445
N         80.81773       92.08612       30.52071
C         81.41327       92.07320       29.18704
C         82.66870       91.22515       29.11148
O         83.15363       90.98734       28.00998
C         81.69983       93.56217       28.95061
C         82.03638       94.04750       30.35410
C         80.97950       93.34368       31.19772
H         80.69060       91.71068       28.42287
H         82.44921       93.79080       28.16230
H         80.74095       94.05655       28.67189
H         83.03119       93.62361       30.62202
H         82.06663       95.14664       30.49943
H         81.34552       93.23981       32.23990
H         80.00148       93.87402       31.17253
N         83.26499       90.74066       30.23306
C         84.38477       89.81644       30.18966
C         83.87877       88.40541       29.94542
O         84.53729       87.63651       29.26262
C         85.18086       89.91239       31.50233
C         86.46645       89.05745       31.46282
C         87.45088       89.45352       32.52569
O         87.09531       90.35438       33.44444
O         88.58292       89.00039       32.52339
H         82.89851       91.01721       31.15685
H         85.09964       90.12683       29.39322
H         84.55382       89.64948       32.37844
H         85.46993       90.98399       31.60022
H         86.96985       89.24391       30.49467
H         86.21869       87.97750       31.54308
N         82.69421       88.01134       30.49110
C         82.13706       86.68586       30.37548
H         81.14331       86.76060       29.88563
H         82.78618       85.99984       29.79901
H         81.99024       86.27488       31.39831
H         82.14229       88.69090       31.00600
Ca        86.97725       91.84778       35.05712
O         86.09448       91.11411       37.70049
H         85.52393       91.62714       38.32272
H         85.89325       90.17662       37.91527
O         87.40067       93.16253       32.76135
H         86.44457       93.36784       32.60559
H         87.83218       94.03931       32.91249
O         88.93222       91.93781       38.29195
H         89.86670       91.65115       38.45085
H         88.52044       91.96177       39.19121
O         89.83537       92.90589       35.50265
H         90.17525       93.13327       36.40340
H         90.37655       93.46513       34.89176

Ca 1.70



