%chk=loop2.cluster37.chk
%nprocshared=48
%mem=10GB
%nosave
#b3lyp/svp scf=(tight,noincore) Test 
#IOP(5/87=12) Density=Current Pop=(MK,readradii) iop(6/33=2) iop(6/42=6)

loop2.cluster37 

   -2  1 
C         47.95885       50.06247       30.56584
C         48.41705       50.92672       29.43047
O         48.31196       50.50884       28.28563
H         46.88374       49.81135       30.48064
H         48.55793       49.12593       30.52902
H         48.15349       50.54447       31.54707
N         49.04009       52.11193       29.68198
C         49.78547       52.80710       28.64379
C         48.87848       53.42662       27.59930
O         48.14101       54.35352       27.90416
C         50.75507       53.81801       29.28158
C         51.68069       54.43551       28.27248
O         51.78492       55.77427       28.18505
O         52.36300       53.72647       27.54911
H         49.12419       52.43226       30.65961
H         50.43195       52.04114       28.16098
H         51.38027       53.26133       30.01490
H         50.20063       54.60896       29.83222
N         48.92156       52.96123       26.31829
C         48.07663       53.46586       25.24438
C         47.53028       52.28846       24.45527
O         48.32612       51.47216       24.00937
C         48.88341       54.36310       24.31267
H         49.58754       52.20498       26.09395
H         47.28329       54.10030       25.66507
H         49.81978       53.86812       23.98201
H         48.27021       54.61919       23.42045
H         49.13082       55.30783       24.84113
N         46.20171       52.08447       24.23623
C         45.12830       52.98069       24.65745
C         44.56235       52.53776       25.98299
O         44.36145       51.35284       26.20507
C         44.02071       53.15385       23.59739
C         43.53573       51.86972       23.02468
O         44.21889       51.30465       22.18923
O         42.32315       51.38308       23.34902
H         45.94288       51.19331       23.79086
H         45.47005       54.02545       24.76692
H         44.38746       53.76346       22.74293
H         43.17332       53.71282       24.05459
N         44.21913       53.48875       26.89116
C         43.61500       53.21559       28.17724
C         44.24834       54.10323       29.24723
O         45.32518       54.63087       29.00977
H         44.30915       54.47958       26.61860
H         43.63834       52.13947       28.46517
H         42.55919       53.50290       28.04064
N         43.63292       54.38533       30.43572
C         42.31989       53.88799       30.80634
C         42.45439       53.07011       32.07033
O         42.83312       53.59196       33.11045
C         41.30250       55.04256       30.93153
C         41.26913       55.89595       29.67699
N         41.42939       57.23839       29.74978
O         41.08879       55.37194       28.58851
H         44.11071       55.01661       31.09796
H         41.91283       53.22500       30.02384
H         41.53858       55.68120       31.80902
H         40.29268       54.60238       31.08320
H         41.54322       57.70779       30.65925
H         41.41570       57.81084       28.89176
N         42.19853       51.74092       32.01621
C         42.35758       50.84741       33.15175
C         41.96212       49.44530       32.75191
O         42.64912       48.50140       33.11542
H         41.89678       51.35554       31.11097
H         41.74142       51.18727       34.01113
H         43.42785       50.84305       33.45843
N         40.88435       49.24407       31.93896
C         40.60376       47.95261       31.33411
C         41.49997       47.69160       30.14573
O         42.11976       48.59558       29.60711
C         39.12409       47.86503       30.88412
C         38.21696       47.75342       32.10442
O         38.76442       49.00266       30.13479
H         40.31392       50.05113       31.64879
H         40.81215       47.15078       32.07531
H         38.93651       46.94209       30.28258
H         38.81631       48.76362       29.17300
H         37.15530       47.85250       31.80023
H         38.36110       46.75382       32.57010
H         38.45700       48.53566       32.85453
N         41.59821       46.41065       29.71086
C         42.31634       45.99158       28.51694
C         41.34078       45.20988       27.66593
O         40.35541       44.70155       28.17627
C         43.56107       45.12311       28.89722
C         44.60576       45.94682       29.69053
C         43.15172       43.87323       29.70748
C         45.32582       46.98558       28.82566
H         41.10519       45.69137       30.25406
H         42.63835       46.87433       27.92731
H         44.07102       44.74864       27.98023
H         45.39977       45.26724       30.07061
H         44.12804       46.43631       30.56526
H         44.04378       43.32344       30.06401
H         42.56148       44.12520       30.60922
H         42.56057       43.18159       29.07012
H         44.63225       47.71859       28.37017
H         46.06167       47.54188       29.44128
H         45.88592       46.46791       28.02306
N         41.58730       45.04617       26.34610
C         40.70086       44.23914       25.52173
C         41.42052       43.69913       24.31358
O         42.51408       44.12121       24.00478
C         39.38967       44.97933       25.17699
C         39.52053       46.39710       24.60281
O         39.98004       47.32490       25.54474
O         40.33508       46.48811       23.46957
H         42.43108       45.46650       25.94419
H         40.45179       43.31531       26.09370
H         38.77551       45.08030       26.09575
H         38.80194       44.36534       24.46264
N         40.87039       42.65523       23.64129
C         41.56893       41.97761       22.55808
C         42.89222       41.38381       23.08322
O         42.86772       40.73818       24.12147
C         40.65932       40.85398       22.02913
C         41.21108       40.22331       20.78283
C         41.84421       38.97452       20.84626
C         41.09196       40.88067       19.54492
C         42.35699       38.38958       19.68658
C         41.59352       40.28426       18.38460
C         42.22712       39.04031       18.45602
H         39.95056       42.30336       23.94349
H         41.72593       42.70614       21.73827
H         39.64708       41.24947       21.78855
H         40.52808       40.09794       22.83373
H         41.95194       38.46527       21.79562
H         40.60212       41.84537       19.48039
H         42.85330       37.43040       19.74279
H         41.49080       40.78559       17.43064
H         42.61759       38.58028       17.55825
N         44.08153       41.53238       22.41046
C         45.33504       40.92381       22.85266
C         46.13479       41.79319       23.82990
O         47.24531       41.41937       24.18156
C         46.08213       40.77411       21.52043
C         45.65061       42.01482       20.74653
C         44.17124       42.12231       21.09262
H         45.18892       39.91415       23.29514
H         47.18116       40.62813       21.60063
H         45.65015       39.89560       20.99076
H         46.17588       42.88919       21.18630
H         45.84938       41.98069       19.65261
H         43.83600       43.18121       21.05109
H         43.57891       41.49814       20.39621
N         45.65146       42.98369       24.27098
C         46.42632       43.93138       25.07968
C         46.68670       43.50546       26.50829
O         47.43830       44.19924       27.18119
C         45.64501       45.25337       25.12530
C         45.65464       45.90975       23.73850
C         44.32428       46.48973       23.41520
O         43.78809       47.43486       24.20301
O         43.70121       46.06655       22.45454
H         44.72660       43.27443       23.93958
H         47.41016       44.10553       24.58865
H         46.03822       45.99116       25.85252
H         44.61849       44.98939       25.46813
H         45.87809       45.16597       22.94420
H         46.45835       46.67631       23.70603
N         46.10017       42.40876       27.05965
C         46.27238       42.07801       28.46001
H         46.94233       41.20209       28.56265
H         46.68280       42.93035       29.04668
H         45.28426       41.83168       28.89340
H         45.48652       41.80796       26.49309
Ca        41.28715       48.46447       24.09057
O         41.87463       49.59291       26.65602
H         42.70783       49.67512       27.18228
H         41.20749       49.23859       27.29502
O         39.86359       49.28798       21.72229
H         39.82655       48.68711       20.93643
H         38.91802       49.43361       21.97472
O         42.69870       48.75487       21.32462
H         43.37443       49.24985       21.83583
H         43.17818       47.92585       21.09820

Ca 1.70



