%chk=loop3.cluster10.chk
%nprocshared=48
%mem=10GB
%nosave
#b3lyp/svp scf=(tight,noincore) Test 
#IOP(5/87=12) Density=Current Pop=(MK,readradii) iop(6/33=2) iop(6/42=6)

loop3.cluster10 

   0  1 
C         86.36185       38.62302       42.07640
C         85.87207       38.26128       43.44043
O         86.25607       37.22171       43.94765
H         87.43747       38.36428       41.98608
H         85.78275       38.04994       41.32216
H         86.23794       39.70988       41.89003
N         84.97401       39.05878       44.08055
C         84.40876       38.73333       45.38021
C         83.17180       37.87567       45.20072
O         82.05942       38.33177       45.42428
C         84.20877       40.03126       46.17969
C         83.67341       39.76756       47.54853
O         84.25147       38.84993       48.34166
O         82.70266       40.38448       47.94329
H         84.62323       39.89851       43.59442
H         85.12412       38.13161       45.97731
H         83.52871       40.73296       45.64813
H         85.20072       40.51668       46.29167
N         83.32277       36.57670       44.81380
C         82.21270       35.64575       44.66536
C         81.64383       35.22508       46.02341
O         80.62736       34.54565       46.05388
C         82.68690       34.37039       43.93221
C         83.38515       34.66718       42.59053
C         83.79799       33.36392       41.89875
C         84.61646       33.58973       40.61570
N         83.90612       34.40074       39.62580
H         84.27217       36.22668       44.65559
H         81.43147       36.13700       44.04186
H         81.80477       33.71801       43.74764
H         83.40274       33.82078       44.58373
H         84.30539       35.26702       42.74740
H         82.69307       35.24560       41.94427
H         82.88582       32.77408       41.66785
H         84.43380       32.77001       42.59320
H         84.84366       32.59259       40.17735
H         85.58314       34.08060       40.86685
H         83.78030       35.37757       39.97528
H         84.48066       34.44731       38.75380
H         82.97809       33.97446       39.40258
N         82.26839       35.58505       47.18651
C         81.78715       35.23028       48.52005
C         81.18978       36.44165       49.22274
O         80.66812       36.28422       50.31841
C         82.90851       34.60162       49.38387
C         84.04754       35.54396       49.61556
O         84.29263       35.96755       50.73036
O         84.81668       35.90060       48.59092
H         83.09821       36.17719       47.12889
H         80.97047       34.48129       48.44087
H         83.30521       33.67710       48.90919
H         82.48601       34.32341       50.37180
N         81.17262       37.67291       48.63081
C         80.43757       38.79030       49.18747
C         80.95575       39.30884       50.50692
O         80.21088       40.01549       51.17030
H         81.60552       37.80746       47.71378
H         79.38446       38.46443       49.31161
H         80.42190       39.63708       48.47021
N         82.21668       39.03441       50.95789
C         82.66704       39.50814       52.26459
C         83.16351       40.95295       52.22461
O         83.49425       41.49344       53.27116
C         83.64228       38.48259       52.89443
C         85.09504       38.61301       52.50955
N         86.05085       38.57046       53.47159
O         85.41655       38.72252       51.33750
H         82.85555       38.46763       50.38396
H         81.78412       39.47444       52.93925
H         83.28128       37.46438       52.63328
H         83.58185       38.56050       53.99969
H         85.79562       38.40905       54.45768
H         87.04840       38.65628       53.23135
N         83.25674       41.63239       51.03867
C         83.74683       42.99263       50.91570
C         85.16290       43.03902       50.38790
O         85.68964       44.13082       50.24444
H         83.01639       41.15488       50.16627
H         83.76179       43.50623       51.90090
H         83.06998       43.56422       50.24414
N         85.88014       41.89213       50.18086
C         87.31730       41.91963       49.95964
C         87.75134       41.12842       48.76218
O         87.21847       40.06673       48.48832
C         88.03475       41.38307       51.20952
C         87.85144       42.37462       52.31836
C         88.77094       43.42210       52.47059
C         86.72156       42.31583       53.14227
C         88.55877       44.40498       53.43680
C         86.50537       43.30211       54.10570
C         87.42382       44.35345       54.25317
O         87.21913       45.32097       55.16809
H         85.43919       40.97601       50.31923
H         87.68640       42.95615       49.81133
H         89.12406       41.28483       51.00078
H         87.65658       40.38107       51.50187
H         89.63891       43.48492       51.82465
H         86.00481       41.51735       53.01822
H         89.26852       45.21534       53.53904
H         85.61996       43.25658       54.72622
H         86.43690       45.32275       55.73728
N         88.85370       41.56252       48.09165
C         89.51594       40.80357       47.05179
C         90.91793       40.46510       47.53121
O         91.52087       41.20464       48.29011
C         89.51880       41.59934       45.72445
C         88.07120       41.65062       45.17195
C         90.47758       40.96867       44.68878
C         87.91259       42.61763       44.00257
H         89.29007       42.44999       48.37703
H         88.98567       39.85203       46.86205
H         89.87987       42.62851       45.94173
H         87.37335       41.99460       45.96515
H         87.75262       40.62855       44.86177
H         91.52229       40.99266       45.06433
H         90.19630       39.91538       44.47804
H         90.49455       41.53474       43.74025
H         88.16784       43.64517       44.33791
H         88.55360       42.34082       43.14398
H         86.85913       42.60437       43.65488
N         91.45881       39.29354       47.12077
C         92.77485       38.81581       47.49436
C         93.44202       38.22035       46.25178
O         92.80862       38.13279       45.21793
C         92.58462       37.77740       48.61270
O         93.79936       37.49538       49.25572
H         90.89317       38.70809       46.52598
H         93.37641       39.66274       47.88309
H         92.13292       36.83846       48.22429
H         91.85409       38.19398       49.34954
H         93.70564       37.79913       50.19963
N         94.72623       37.78345       46.28883
C         95.39246       37.20455       45.11673
C         94.64754       36.01553       44.51871
O         94.45208       35.99339       43.30904
C         96.81571       36.80019       45.50531
H         95.25334       37.88499       47.16594
H         95.47610       37.96923       44.31158
H         96.80054       36.13259       46.39276
H         97.32469       36.28076       44.66614
H         97.39500       37.71536       45.75528
N         94.21643       34.98360       45.29325
C         93.57636       33.79527       44.73134
C         92.29349       34.12392       43.97734
O         92.18638       33.77636       42.80936
C         93.30089       32.77576       45.84139
H         94.37455       35.03485       46.31189
H         94.28909       33.31065       44.02543
H         94.24810       32.55629       46.38002
H         92.56162       33.16685       46.57128
H         92.92225       31.82404       45.41073
N         91.26682       34.77800       44.59224
C         89.99875       35.05568       43.90542
C         90.18857       35.99652       42.71515
O         89.39256       35.95821       41.78804
C         88.95340       35.56947       44.91353
C         89.24882       36.99388       45.36622
C         88.58218       37.26169       46.66605
O         89.24632       37.43950       47.66867
O         87.26103       37.20248       46.76800
H         91.38231       35.04938       45.58096
H         89.61430       34.08068       43.53984
H         89.00479       34.88220       45.79020
H         87.92021       35.51497       44.52019
H         88.93943       37.74133       44.60209
H         90.33356       37.05745       45.51076
N         91.24748       36.85827       42.68399
C         91.57430       37.71068       41.56032
H         92.61317       37.47687       41.24064
H         90.89934       37.55776       40.69482
H         91.54254       38.77729       41.87054
H         91.87084       36.90219       43.49260
Ca        86.48086       37.30733       48.82547
O         88.89921       38.41113       50.56261
H         89.52742       37.99006       49.93240
H         89.49345       38.82062       51.23806
O         86.95916       36.18323       51.65790
H         86.92609       35.28391       52.06779
H         87.59203       36.68595       52.22491
O         87.56757       34.69484       49.14008
H         86.86667       34.37429       48.51985
H         87.34686       34.25797       49.99897

Ca 1.70



