%chk=loop2.cluster233.chk
%nprocshared=48
%mem=10GB
%nosave
#b3lyp/svp scf=(tight,noincore) Test 
#IOP(5/87=12) Density=Current Pop=(MK,readradii) iop(6/33=2) iop(6/42=6)

loop2.cluster233 

   -2  1 
C        109.21559       54.94794       -6.38055
C        107.72632       55.12221       -6.52356
O        107.04467       54.10879       -6.57658
H        109.81811       55.86029       -6.27628
H        109.41199       54.34506       -5.47017
H        109.58959       54.39991       -7.26801
N        107.09797       56.33285       -6.57716
C        107.74393       57.64550       -6.54595
C        107.35906       58.47895       -7.75630
O        106.24229       58.35004       -8.23119
C        107.48142       58.36550       -5.20362
C        106.06912       58.47954       -4.70924
O        105.13386       58.00170       -5.32719
O        105.84689       59.08745       -3.52854
H        106.07083       56.31160       -6.64086
H        108.83659       57.58587       -6.58368
H        107.91095       59.38853       -5.25819
H        108.02470       57.80333       -4.41468
N        108.28900       59.31268       -8.33797
C        108.06864       60.18448       -9.50099
C        107.29830       61.45764       -9.15502
O        107.74386       62.54083       -9.51346
C        107.49924       59.43366      -10.70744
H        109.24072       59.31425       -7.94345
H        109.07158       60.53472       -9.83810
H        106.45987       59.10357      -10.53698
H        107.50714       60.09632      -11.60027
H        108.13729       58.55074      -10.92966
N        106.15235       61.40293       -8.42950
C        105.40040       62.56004       -7.97884
C        104.75727       62.29580       -6.62699
O        104.86638       61.20106       -6.09285
C        104.31722       62.92048       -9.00834
C        103.62982       61.74835       -9.67828
O        103.24871       60.61836       -9.03667
O        103.47994       61.79050      -10.88831
H        105.80644       60.49877       -8.13360
H        106.07492       63.43072       -7.80612
H        104.79420       63.51037       -9.82367
H        103.55891       63.59898       -8.56457
N        104.10552       63.29786       -5.98273
C        103.45133       63.10904       -4.70224
C        102.07002       63.70259       -4.69633
O        101.61033       64.20443       -5.71668
H        104.11566       64.24547       -6.39369
H        104.03894       63.65222       -3.93635
H        103.39589       62.03659       -4.40975
N        101.35029       63.69945       -3.54205
C        100.07181       64.38491       -3.40781
C        100.03836       65.21925       -2.13303
O        100.91516       65.10212       -1.28425
C         98.92020       63.36101       -3.32076
C         98.77595       62.47783       -4.53188
N         98.38128       62.98488       -5.72388
O         98.96801       61.27795       -4.42010
H        101.74433       63.21551       -2.71887
H         99.90463       65.06487       -4.27382
H         97.94731       63.87722       -3.17760
H         99.10529       62.72209       -2.43033
H         98.16442       63.98666       -5.82553
H         98.25709       62.36168       -6.53678
N         98.98152       66.04223       -1.91784
C         98.75183       66.73457       -0.65472
C         97.44399       67.52134       -0.68928
O         96.82407       67.60211       -1.74068
H         98.29577       66.12907       -2.68069
H         99.60716       67.40427       -0.41484
H         98.67085       65.96659        0.14070
N         96.91702       68.12995        0.41012
C         97.53137       68.13787        1.73454
C         97.10726       66.90982        2.55236
O         97.63766       66.69370        3.63217
C         97.09733       69.45070        2.44954
C         97.98505       69.81688        3.63481
O         97.14874       70.52614        1.54239
H         96.01249       68.61218        0.29151
H         98.63421       68.15713        1.60082
H         96.04737       69.33075        2.82121
H         96.21424       70.71097        1.25144
H         99.03799       69.91448        3.29239
H         97.66117       70.80101        4.03800
H         97.92412       69.06710        4.44592
N         96.11508       66.08776        2.09416
C         95.55691       64.93415        2.79243
C         94.88880       65.37366        4.08871
O         95.59088       65.59542        5.06296
C         96.55458       63.75977        2.99567
C         97.42095       63.48798        1.73853
C         95.78685       62.50676        3.45471
C         96.67162       63.36879        0.40621
H         95.67349       66.30863        1.19210
H         94.78827       64.53799        2.10506
H         97.27678       64.00788        3.80495
H         98.03400       62.57458        1.90044
H         98.12863       64.33450        1.63982
H         95.01481       62.21068        2.71258
H         96.47586       61.65232        3.61724
H         95.28405       62.71517        4.42374
H         97.41447       63.25656       -0.41165
H         95.98331       62.50182        0.40104
H         96.09823       64.28861        0.17693
N         93.54616       65.60101        4.18520
C         92.59742       65.44081        3.09045
C         92.30811       63.97491        2.86946
O         92.46466       63.49110        1.75854
C         91.31351       66.27756        3.33312
C         90.42437       65.87796        4.48754
O         90.91059       65.79489        5.74040
O         89.23512       65.68172        4.29450
H         93.20176       65.97640        5.07924
H         93.02276       65.89520        2.16508
H         90.70063       66.26348        2.40309
H         91.63988       67.32513        3.49977
N         91.88622       63.21022        3.91873
C         91.55775       61.80074        3.78736
C         90.05165       61.63695        4.00259
O         89.42525       62.59077        4.43193
C         92.45482       60.98333        4.73735
C         92.15755       61.08605        6.21734
C         92.75686       62.07409        7.02309
C         91.34356       60.11227        6.81914
C         92.55114       62.06754        8.41059
C         91.14198       60.11133        8.20040
C         91.75156       61.08160        8.99757
H         91.77696       63.64273        4.84130
H         91.79779       61.48100        2.75962
H         93.51381       61.25363        4.56287
H         92.44167       59.91556        4.46684
H         93.39890       62.82908        6.58608
H         90.88092       59.34186        6.21702
H         93.02526       62.81443        9.03536
H         90.52608       59.34535        8.65338
H         91.60935       61.06342       10.07101
N         89.37106       60.49019        3.67104
C         89.94685       59.26445        3.15734
C         90.48234       59.35532        1.75186
O         90.40757       60.40227        1.11725
C         88.77114       58.27901        3.22510
C         87.56340       59.17529        3.03006
C         87.93354       60.41326        3.83627
H         90.74948       58.87193        3.80267
H         88.82101       57.41522        2.52651
H         88.71896       57.88866        4.26327
H         87.53728       59.46680        1.95619
H         86.58550       58.72505        3.30251
H         87.39696       61.28840        3.40790
H         87.71164       60.31236        4.92043
N         91.02101       58.23447        1.19445
C         91.51220       58.18320       -0.16319
C         92.78358       57.31001       -0.28969
O         92.83202       56.51297       -1.21755
C         90.37324       57.57332       -1.02626
C         89.06129       58.37951       -1.09326
C         89.21936       59.72100       -1.75281
O         89.89906       59.83742       -2.76024
O         88.51047       60.77445       -1.30400
H         91.02620       57.36041        1.74285
H         91.75993       59.20298       -0.53456
H         90.12549       56.57229       -0.60260
H         90.71858       57.42293       -2.07048
H         88.58421       58.49700       -0.09651
H         88.35521       57.78876       -1.71390
N         93.87410       57.36927        0.54119
C         94.02150       58.15632        1.74961
H         94.88926       58.83687        1.64313
H         93.14902       58.76015        2.02435
H         94.23569       57.45990        2.59263
H         94.67307       56.75767        0.30902
Ca       103.45811       59.29460       -7.20567
O        104.04950       56.15210       -8.20232
H        104.32379       55.20238       -8.19861
H        104.61439       56.54744       -8.90796
O        102.62604       59.37372       -3.88125
H        102.06657       59.03777       -3.14020
H        103.47233       58.88709       -3.76996
O        101.24857       60.50302       -6.32464
H        100.35529       60.52300       -6.74546
H        101.07648       60.51132       -5.35343
O        101.92109       56.87499       -5.57080
H        102.10365       55.90334       -5.52761
H        100.93320       56.94061       -5.57522
O        100.94057       57.98849       -8.10695
H        100.22789       57.37874       -7.79117
H        100.50113       58.55030       -8.79219
O        103.68218       58.27025      -10.44897
H        104.49678       57.81002      -10.76635
H        103.75552       59.16481      -10.85802

Ca 1.70



