%chk=loop3.cluster192.chk
%nprocshared=48
%mem=10GB
%nosave
#b3lyp/svp scf=(tight,noincore) Test 
#IOP(5/87=12) Density=Current Pop=(MK,readradii) iop(6/33=2) iop(6/42=6)

loop3.cluster192 

   0  1 
C         94.79319       57.42005       31.98619
C         95.68546       56.23869       32.20270
O         95.52144       55.52227       33.18005
H         93.94589       57.40065       32.70200
H         95.36662       58.36247       32.09663
H         94.37540       57.36793       30.95653
N         96.60939       55.92299       31.26191
C         97.36758       54.68526       31.31237
C         98.45382       54.70217       32.37712
O         99.11138       55.71486       32.57047
C         97.91074       54.38158       29.91928
C         98.51830       53.03166       29.81242
O         97.87980       52.03493       30.10504
O         99.72852       52.94044       29.25277
H         96.66731       56.51211       30.41434
H         96.65430       53.85627       31.52191
H         98.64433       55.14989       29.59368
H         97.06013       54.38611       29.20361
N         98.66935       53.57913       33.11751
C         99.65391       53.48473       34.19856
C        101.11301       53.60033       33.75204
O        101.96114       53.85966       34.59605
C         99.40088       52.20184       35.02624
C         99.52877       50.88205       34.22540
C         99.12803       49.63590       35.03780
C         97.63541       49.62544       35.43496
N         97.26221       48.36484       36.08016
H         98.05290       52.77854       32.93498
H         99.46109       54.34619       34.87604
H         98.36494       52.29608       35.40810
H        100.08753       52.17074       35.89924
H        100.57826       50.76901       33.87983
H         98.88835       50.88284       33.32064
H         99.77069       49.53635       35.93733
H         99.30657       48.75587       34.38066
H         97.02316       49.75358       34.51522
H         97.39595       50.46052       36.12825
H         96.21896       48.29024       36.10615
H         97.63665       47.54831       35.54488
H         97.62634       48.34090       37.06007
N        101.47777       53.43032       32.44929
C        102.83041       53.68563       31.94382
C        102.80501       54.80708       30.89067
O        103.85964       55.18927       30.40358
C        103.47220       52.35451       31.48755
C        102.65102       51.61414       30.48705
O        102.56720       52.02291       29.21802
O        101.99948       50.64450       30.84105
H        100.76250       53.12459       31.77532
H        103.49121       54.05934       32.75925
H        103.51736       51.71589       32.39754
H        104.51242       52.47630       31.11769
N        101.63063       55.44240       30.57096
C        101.54185       56.64250       29.75801
C        101.81106       56.45527       28.28981
O        101.90554       57.45760       27.59527
H        100.75899       55.13204       30.99422
H        102.20511       57.42138       30.18942
H        100.50031       57.03305       29.81357
N        101.91377       55.21793       27.72688
C        102.12766       55.02995       26.29639
C        101.06387       54.10925       25.70684
O        100.51795       53.27571       26.41338
C        103.58495       54.61433       26.07379
C        103.90680       54.38732       24.61840
N        104.69602       55.24966       23.94081
O        103.44810       53.41607       24.04142
H        101.84267       54.38190       28.32343
H        102.01998       55.99964       25.76182
H        103.85198       53.72069       26.67453
H        104.20014       55.45938       26.46109
H        105.07513       56.09093       24.39775
H        104.90497       55.08114       22.94584
N        100.62401       54.31540       24.43213
C         99.41561       53.70011       23.90659
C         99.39355       52.19345       23.77438
O         98.31848       51.66957       23.51798
H        101.08733       55.03388       23.85485
H         99.21509       54.10638       22.88978
H         98.56870       54.00685       24.55510
N        100.52052       51.42737       23.84708
C        100.47739       50.01723       23.46518
C        100.08794       49.08522       24.58591
O        100.22200       49.41687       25.75430
C        101.78402       49.53246       22.81606
C        101.92528       50.03422       21.40351
C        101.69067       49.14716       20.33898
C        102.28256       51.36338       21.12738
C        101.82044       49.57632       19.02018
C        102.42604       51.78797       19.80250
C        102.19884       50.89234       18.74535
O        102.34743       51.28554       17.46516
H        101.43041       51.88350       23.98084
H         99.68438       49.88318       22.69437
H        101.73582       48.42306       22.76199
H        102.68028       49.76565       23.42602
H        101.39726       48.12225       20.53360
H        102.46856       52.06323       21.92871
H        101.63316       48.88100       18.21198
H        102.71805       52.80971       19.59740
H        102.64047       52.17927       17.23966
N         99.59659       47.85174       24.24378
C         99.18749       46.81033       25.17378
C        100.37480       46.22296       25.89567
O        101.45056       46.81403       25.91641
C         97.96305       47.27641       26.03379
C         97.59596       46.34139       27.21592
C         96.76479       47.42022       25.07059
C         96.48875       46.91218       28.10747
H         99.49276       47.63703       23.24089
H         98.84412       45.95253       24.55129
H         98.20667       48.25603       26.48956
H         98.48275       46.23072       27.87567
H         97.28474       45.34008       26.84816
H         95.86647       47.83279       25.56376
H         97.01127       48.09662       24.22677
H         96.50680       46.42146       24.64910
H         96.31264       46.23370       28.96743
H         96.79111       47.90637       28.49950
H         95.53054       47.01252       27.56240
N        100.26081       44.98692       26.44694
C        101.33369       44.30933       27.14407
C        101.41965       42.80392       26.84084
O        102.35408       42.17805       27.31026
C        101.09135       44.52520       28.63980
O         99.82951       44.01845       28.98073
H         99.32931       44.55164       26.43507
H        102.31535       44.76478       26.87655
H        101.11482       45.62456       28.82879
H        101.87733       44.03031       29.24594
H         99.58800       44.41529       29.85607
N        100.43988       42.14541       26.13411
C        100.41023       40.69643       25.95105
C        100.59161       39.93731       27.26860
O        101.54282       39.17317       27.38209
C        101.42028       40.28460       24.87807
H         99.63429       42.65374       25.76346
H         99.41341       40.41871       25.53679
H        101.19629       40.82783       23.93475
H        102.45884       40.51260       25.19111
H        101.32551       39.19526       24.67601
N         99.72793       40.05694       28.32076
C         98.51517       40.87078       28.29618
C         97.35710       40.02535       27.77303
O         97.54253       38.82483       27.62977
C         98.27206       41.40129       29.72153
H         99.89624       39.46737       29.15181
H         98.65834       41.73885       27.64137
H         99.19439       41.88649       30.10400
H         97.46975       42.15816       29.76556
H         98.02446       40.57044       30.41593
N         96.11636       40.52217       27.48105
C         95.70515       41.91904       27.60027
C         94.90114       42.41941       26.39370
O         94.91244       43.61582       26.13561
C         94.79977       42.00073       28.83571
C         94.54530       43.42705       29.33384
C         93.65375       43.36153       30.53703
O         92.47536       43.06847       30.40991
O         94.16415       43.56153       31.76662
H         95.39899       39.82418       27.24711
H         96.58331       42.58154       27.74983
H         95.30140       41.46336       29.66948
H         93.84668       41.47019       28.62086
H         94.08005       44.08304       28.56738
H         95.52471       43.86835       29.62199
N         94.06960       41.58408       25.69789
C         93.12877       42.07052       24.71284
H         92.35881       42.69264       25.21896
H         93.63819       42.65905       23.92393
H         92.60860       41.20737       24.24157
H         94.05611       40.57726       25.88860
Ca       100.74140       51.21463       28.27192
O         98.18120       51.16669       26.95531
H         97.52912       50.56225       26.52239
H         97.71900       52.03972       27.01008
O        102.43262       48.89680       28.25559
H        102.58034       48.10762       27.68135
H        102.94066       48.69776       29.07998
O        103.09292       50.84076       26.21367
H        103.10228       51.72013       25.76822
H        103.47403       50.22418       25.54176
O         99.06899       49.21918       29.64770
H         98.30835       49.82762       29.49113
H         98.69180       48.52164       30.23720

Ca 1.70



