%chk=loop3.cluster202.chk
%nprocshared=48
%mem=10GB
%nosave
#b3lyp/svp scf=(tight,noincore) Test 
#IOP(5/87=12) Density=Current Pop=(MK,readradii) iop(6/33=2) iop(6/42=6)

loop3.cluster202 

   0  1 
C         38.88018        7.10394        8.14361
C         37.84109        7.75165        7.27789
O         36.74363        7.22228        7.17368
H         39.81763        7.69823        8.17438
H         38.49060        7.00047        9.17784
H         39.11180        6.09633        7.73916
N         38.12028        8.90107        6.60035
C         37.14107        9.53588        5.71827
C         35.92278       10.04008        6.50700
O         35.92216        9.97783        7.72924
C         37.80379       10.70477        4.93661
C         38.98231       10.29662        4.07891
O         39.37473        9.00943        3.99775
O         39.58794       11.14716        3.44574
H         39.06648        9.30764        6.68180
H         36.79498        8.78045        4.97906
H         38.15222       11.47431        5.65891
H         37.06059       11.17307        4.25776
N         34.85453       10.58356        5.84160
C         33.64773       11.14740        6.47534
C         33.90159       12.37290        7.33824
O         32.92859       12.95534        7.80793
C         32.82499       10.08619        7.25194
C         32.26998        9.04059        6.28164
C         31.47357        7.92782        6.98084
C         31.13919        6.77575        6.01333
N         32.34570        6.05387        5.59010
H         34.88950       10.60150        4.81275
H         32.99250       11.51747        5.65572
H         31.95993       10.56636        7.76266
H         33.45147        9.60433        8.03277
H         33.13953        8.61939        5.75442
H         31.60241        9.53411        5.53754
H         30.52896        8.35799        7.38605
H         32.05027        7.50816        7.83223
H         30.59092        7.16050        5.12421
H         30.47223        6.05823        6.53980
H         32.97418        6.65198        5.01106
H         32.86695        5.70791        6.42888
H         32.07165        5.23491        5.00332
N         35.15111       12.86944        7.55891
C         35.37965       14.04582        8.37931
C         36.68556       14.72875        8.01377
O         37.51773       14.16089        7.31154
C         35.33227       13.61697        9.87126
C         35.56649       14.72172       10.86085
O         34.52608       15.27768       11.50555
O         36.70475       15.06964       11.13589
H         35.96147       12.41683        7.12483
H         34.57977       14.79226        8.16046
H         36.07814       12.81398       10.06683
H         34.33283       13.18078       10.07879
N         36.93011       15.97687        8.47490
C         38.20464       16.64122        8.28798
C         38.28366       17.89466        9.12143
O         37.25216       18.44991        9.48712
H         36.18943       16.43696        9.02778
H         38.41526       16.85055        7.21654
H         38.98905       15.94947        8.66960
N         39.48956       18.33444        9.56937
C         39.60847       19.40287       10.55210
C         40.41347       20.58137       10.05674
O         40.55886       21.54110       10.79776
C         40.21209       18.81329       11.83410
C         39.43054       17.58319       12.29322
N         39.88729       17.18865       13.62697
O         38.07346       17.94102       12.24673
H         40.34569       17.83291        9.27886
H         38.60717       19.81427       10.81419
H         40.19910       19.58558       12.63652
H         41.24013       18.49284       11.63507
H         40.93073       17.07341       13.59940
H         39.53483       16.23060       13.82320
N         40.92504       20.60641        8.79334
C         41.63376       21.75203        8.25563
C         42.94841       21.99824        8.94907
O         43.78017       21.10300        8.98595
H         40.76606       19.81117        8.16121
H         40.97689       22.64608        8.30976
H         41.85663       21.55276        7.18763
N         43.21304       23.22080        9.50022
C         44.46306       23.55039       10.17844
C         44.69084       22.67171       11.39659
O         45.83666       22.48373       11.76865
C         45.67956       23.48336        9.22599
C         45.60208       24.44136        8.07117
C         45.04280       24.03791        6.84947
C         46.15328       25.72752        8.19015
C         45.05221       24.90556        5.75344
C         46.16259       26.59222        7.09440
C         45.62270       26.17875        5.86792
O         45.66184       26.99142        4.79322
H         42.49223       23.95539        9.44601
H         44.40274       24.59919       10.54581
H         45.86311       22.45479        8.84977
H         46.59961       23.74063        9.79736
H         44.62033       23.04672        6.74194
H         46.59039       26.05148        9.12709
H         44.63396       24.58110        4.80930
H         46.60277       27.57630        7.19481
H         46.09746       27.85524        4.82706
N         43.63806       22.08557       12.04849
C         43.74936       21.19514       13.20465
C         44.07155       22.00250       14.45393
O         43.16501       22.17339       15.25358
C         44.60976       19.94182       12.87540
C         43.90555       19.10534       11.77691
C         44.83990       19.04042       14.10047
C         44.90340       18.36851       10.89403
H         42.69026       22.26661       11.70016
H         42.72025       20.80756       13.40054
H         45.59880       20.26986       12.50477
H         43.28967       19.72763       11.09314
H         43.23157       18.37844       12.27297
H         45.30514       18.07748       13.79918
H         45.51685       19.53086       14.82290
H         43.87287       18.81024       14.59957
H         45.63957       17.80552       11.49953
H         44.36471       17.66766       10.22253
H         45.44113       19.11453       10.26892
N         45.27349       22.61775       14.66008
C         45.44906       23.58060       15.74371
C         45.57993       22.94848       17.11179
O         45.34949       23.65069       18.08683
C         46.62039       24.52775       15.45938
O         46.36889       25.26690       14.29366
H         46.03615       22.49499       13.99054
H         44.53651       24.22024       15.77247
H         47.55417       23.94221       15.32239
H         46.78516       25.22785       16.30906
H         45.63356       25.89984       14.51501
N         45.89503       21.62565       17.27614
C         45.87606       20.96819       18.58231
C         44.46578       20.92918       19.16905
O         44.30625       20.52069       20.31072
C         46.92245       21.57615       19.53353
H         46.11885       21.05250       16.45169
H         46.17023       19.90336       18.45771
H         47.93436       21.43667       19.09555
H         46.76881       22.65477       19.72669
H         46.90262       21.05008       20.51164
N         43.38209       21.25216       18.40005
C         42.01441       21.05541       18.83845
C         41.56805       19.63490       18.56538
O         42.24067       18.89485       17.85883
C         41.08019       22.01760       18.08434
H         43.52283       21.48698       17.41921
H         41.94144       21.26002       19.92890
H         41.16233       21.85563       16.98634
H         40.01922       21.85495       18.36861
H         41.34700       23.07185       18.30433
N         40.40935       19.19823       19.12964
C         39.80259       17.89176       18.91435
C         40.62443       16.69784       19.43490
O         40.13176       15.58060       19.37368
C         39.32140       17.76086       17.44420
C         38.32211       16.59403       17.32390
C         37.67741       16.46731       16.00306
O         37.86165       15.46328       15.33471
O         36.84121       17.40279       15.55145
H         39.89773       19.85254       19.74032
H         38.87521       17.89634       19.52721
H         40.17633       17.64733       16.73848
H         38.78777       18.70143       17.17407
H         37.50369       16.71706       18.06129
H         38.84938       15.64200       17.49089
N         41.84679       16.84160       20.02109
C         42.56015       15.69371       20.54525
H         43.52174       16.01498       20.99557
H         41.95010       15.19683       21.33116
H         42.77035       14.96473       19.73254
H         42.27779       17.76645       20.12959
Ca        36.45607       16.99188       13.44774
O         33.32178       16.83702       13.58895
H         32.78875       16.00284       13.56110
H         32.69169       17.54519       13.30407
O         35.27841       14.20194       14.29831
H         34.42819       13.69631       14.26427
H         35.92482       13.57542       14.71016
O         35.37518       19.11996       11.97936
H         36.05260       19.84054       12.02595
H         34.54631       19.52755       12.33333

Ca 1.70



