%chk=loop4.cluster62.chk
%nprocshared=48
%mem=10GB
%nosave
#b3lyp/svp scf=(tight,noincore) Test 
#IOP(5/87=12) Density=Current Pop=(MK,readradii) iop(6/33=2) iop(6/42=6)

loop4.cluster62 

   -3  1 
C         66.44652       57.71876       44.95259
C         65.85674       58.47356       46.10124
O         65.18187       59.46989       45.88612
H         67.50893       57.48930       45.17718
H         65.89258       56.76823       44.80074
H         66.40302       58.32596       44.02443
N         66.06908       58.03898       47.37221
C         65.53957       58.73774       48.53030
C         66.25703       60.07108       48.72535
O         67.43859       60.09697       49.04104
C         65.66556       57.84036       49.76777
C         65.24736       58.54420       51.00852
O         64.11843       58.98549       51.11687
O         66.13962       58.71854       51.99731
H         66.62540       57.18179       47.51394
H         64.44876       58.90654       48.36739
H         66.72166       57.52279       49.89300
H         65.03475       56.93459       49.62717
N         65.57031       61.22353       48.53041
C         66.14317       62.55946       48.62342
C         66.08618       63.06105       50.07705
O         66.99971       63.74053       50.51968
C         65.37532       63.52067       47.64354
C         65.27928       62.88806       46.21453
C         66.07746       64.88936       47.56860
C         64.69032       63.78581       45.12670
H         64.61308       61.13724       48.19088
H         67.19649       62.53688       48.26344
H         64.34302       63.68036       48.03097
H         64.63364       61.98766       46.23722
H         66.29157       62.57437       45.88302
H         67.05169       64.79271       47.04194
H         65.44196       65.61532       47.01898
H         66.25059       65.32178       48.57261
H         64.66541       63.22071       44.16957
H         63.65791       64.09925       45.38459
H         65.32972       64.67632       44.96151
N         64.99060       62.79371       50.84632
C         64.76175       63.33587       52.19336
C         65.49202       62.58647       53.30835
O         66.18690       63.23187       54.08380
C         63.24082       63.51061       52.47927
C         62.34703       62.42059       51.96163
O         61.50329       62.67670       51.11881
O         62.50352       61.16062       52.35255
H         64.25201       62.22460       50.42179
H         65.13777       64.38280       52.23878
H         62.91108       64.42571       51.94355
H         63.07216       63.68204       53.56492
N         65.38984       61.23635       53.45607
C         66.08277       60.50066       54.51417
C         65.28699       59.33816       55.10219
O         65.84450       58.60949       55.90908
H         64.90222       60.71259       52.72461
H         66.38461       61.17259       55.34950
H         67.01271       60.07615       54.08206
N         63.98261       59.10476       54.76518
C         63.19791       58.01523       55.36002
C         63.54627       56.62430       54.82215
O         62.94338       55.66197       55.27985
C         61.68157       58.33421       55.26520
C         61.12182       58.51244       53.89241
O         60.04215       59.06399       53.75099
O         61.84148       58.20812       52.81258
H         63.50545       59.76743       54.14611
H         63.39442       58.01005       56.45386
H         61.54748       59.31270       55.77631
H         61.06692       57.58187       55.80071
N         64.52714       56.42351       53.88783
C         64.86859       55.10094       53.37448
C         63.80714       54.54655       52.44400
O         63.73860       53.34274       52.25898
H         65.06873       57.22103       53.54381
H         65.03870       54.41533       54.23352
H         65.81167       55.15030       52.79120
N         62.92278       55.39241       51.85115
C         61.77716       54.96048       51.06097
C         61.62204       55.88338       49.86801
O         61.88291       57.06850       49.98796
C         60.51944       55.08663       51.93385
C         60.52549       54.11979       53.13411
C         59.41714       54.41297       54.11734
N         59.20966       53.58605       55.16658
O         58.71606       55.40631       53.98528
H         63.02134       56.39258       52.03164
H         61.86662       53.90488       50.72463
H         59.61431       54.86100       51.32646
H         60.45484       56.13225       52.29381
H         61.47363       54.18791       53.70243
H         60.42797       53.08150       52.74762
H         59.78067       52.73666       55.28559
H         58.46661       53.79180       55.85074
N         61.13256       55.40665       48.69249
C         60.97800       56.25929       47.52178
C         59.49950       56.34195       47.18485
O         58.90023       55.32511       46.87210
C         61.81971       55.67533       46.35842
C         61.72461       56.54422       45.09304
C         63.30261       55.53880       46.75471
H         60.86431       54.41559       48.62159
H         61.35757       57.28036       47.71924
H         61.43076       54.65669       46.14028
H         62.11235       57.56645       45.29839
H         62.32813       56.09794       44.27455
H         60.67603       56.62880       44.74308
H         63.42659       55.02697       47.73175
H         63.83577       54.92827       45.99589
H         63.78769       56.53421       46.82313
N         58.86213       57.55165       47.19853
C         57.48387       57.71876       46.75387
C         57.51475       58.21778       45.33252
O         58.58553       58.43323       44.81239
C         56.64563       58.63298       47.68900
C         56.89041       60.12779       47.56336
N         58.04601       60.70046       47.96195
O         56.00180       60.83576       47.11570
H         59.41016       58.38704       47.38629
H         56.98423       56.72720       46.73551
H         56.73867       58.30368       48.74046
H         55.58195       58.47224       47.41149
H         58.78157       60.14791       48.40626
H         58.18236       61.71730       47.85794
N         56.36866       58.36562       44.62598
C         56.35221       58.73078       43.20705
C         56.91370       60.12715       42.93097
O         57.46398       60.34342       41.85752
C         54.89803       58.63639       42.73572
C         54.69234       58.87548       41.26966
C         55.17607       57.96834       40.31038
C         53.96412       59.99772       40.85849
C         54.90468       58.17827       38.95335
C         53.70202       60.20905       39.50849
C         54.15984       59.29451       38.55072
O         53.87800       59.47780       37.24613
H         55.48016       58.14670       45.09771
H         56.95965       57.98434       42.64745
H         54.31200       59.37063       43.33091
H         54.49714       57.62514       42.96975
H         55.73582       57.09073       40.61370
H         53.59271       60.70488       41.58926
H         55.25831       57.46729       38.21658
H         53.13128       61.07783       39.21023
H         53.33355       60.22152       36.94922
N         56.79195       61.12827       43.84713
C         57.31764       62.48013       43.64870
C         58.82816       62.41738       43.45176
O         59.34030       62.89911       42.45281
C         56.98140       63.33943       44.89062
C         57.27352       64.82949       44.69072
C         57.08881       65.56707       45.98588
O         55.99656       65.59631       46.53097
O         58.14041       66.17760       46.56450
H         56.30600       60.91518       44.72667
H         56.82218       62.93543       42.76103
H         57.56246       62.96290       45.76048
H         55.90184       63.23564       45.13768
H         56.59316       65.24950       43.91582
H         58.32092       64.96680       44.35230
N         59.58353       61.76967       44.38088
C         61.02107       61.52538       44.25832
C         61.30880       60.69451       43.01423
O         62.27882       60.95603       42.31702
C         61.50649       60.73419       45.50588
C         61.35197       61.54322       46.81114
C         61.68078       60.73563       48.03323
O         62.51424       61.22305       48.95703
O         61.12891       59.67492       48.24105
H         59.08965       61.36454       45.18812
H         61.59151       62.48004       44.21517
H         62.57418       60.44893       45.39046
H         60.90649       59.79884       45.58093
H         60.30848       61.88170       46.92808
H         61.99694       62.44714       46.78133
N         60.49707       59.65230       42.69932
C         60.73707       58.73622       41.61219
H         61.70941       58.22527       41.76583
H         59.93788       57.95957       41.61173
H         60.71663       59.26637       40.63959
H         59.66533       59.50667       43.25836
Ca        61.46135       59.58136       51.15900
O         58.98361       57.96743       50.41656
H         58.71564       57.20071       50.97901
H         58.18300       58.54563       50.41155
O         59.01064       60.97433       51.05444
H         58.42507       61.76083       50.93183
H         58.53073       60.40329       51.70484

Ca 1.70



