%chk=loop1.cluster72.chk
%nprocshared=48
%mem=10GB
%nosave
#b3lyp/svp scf=(tight,noincore) Test 
#IOP(5/87=12) Density=Current Pop=(MK,readradii) iop(6/33=2) iop(6/42=6)

loop1.cluster72 

   0  1 
C         46.26655       42.60765        8.03572
C         46.48055       42.09417        6.63974
O         47.48193       42.41873        6.02106
H         45.24647       42.35658        8.40312
H         47.00283       42.13140        8.71308
H         46.37355       43.71141        8.06937
N         45.55130       41.27755        6.08345
C         45.63024       40.74070        4.72954
C         44.55816       41.36601        3.84700
O         44.35499       40.89473        2.73631
C         45.63579       39.17319        4.72216
C         44.63493       38.39848        5.54751
O         43.86801       38.99836        6.46551
O         44.59996       37.18151        5.45475
H         44.71590       41.07009        6.64171
H         46.57360       41.03365        4.22876
H         46.62615       38.82540        5.08417
H         45.53782       38.83130        3.67049
N         43.87166       42.47860        4.25760
C         42.81233       43.09566        3.47849
C         43.00206       44.63313        3.41239
O         42.18083       45.31377        4.01342
C         41.47531       42.76130        4.20512
C         41.26988       41.25040        4.40594
C         39.98902       40.94545        5.20162
C         39.76715       39.43257        5.39896
N         40.71815       38.85482        6.34506
H         44.04771       42.87426        5.19113
H         42.72114       42.64399        2.47607
H         40.62121       43.17496        3.62262
H         41.48173       43.23561        5.21160
H         42.13493       40.85106        4.96592
H         41.22215       40.75413        3.41220
H         39.12761       41.35132        4.63226
H         40.01780       41.44496        6.19668
H         39.84949       38.91632        4.41651
H         38.74535       39.26223        5.79691
H         40.60382       39.28501        7.29236
H         40.57504       37.82206        6.41358
H         41.67529       39.01421        5.99640
N         44.00160       45.31692        2.75341
C         45.06962       44.84340        1.86975
C         44.54273       44.29138        0.54856
O         43.54349       43.59644        0.56285
C         46.15277       43.97857        2.56023
C         47.50774       44.63455        2.44680
O         47.72683       45.83418        3.01500
O         48.40189       44.10270        1.82595
H         43.97475       46.34384        2.86908
H         45.58325       45.78711        1.58533
H         46.16289       42.95820        2.11825
H         45.96659       43.88650        3.64757
N         45.11231       44.56344       -0.66168
C         46.32385       45.33814       -0.86210
C         46.61991       45.39220       -2.34220
O         46.04062       46.23576       -3.01150
H         44.65438       44.16385       -1.49668
H         47.16402       44.88609       -0.30952
H         46.19984       46.38149       -0.49111
N         47.45926       44.51686       -2.97197
C         48.21467       43.44309       -2.32505
C         47.31704       42.34215       -1.75872
O         46.58544       41.69914       -2.50231
C         49.19105       42.83427       -3.36272
C         50.01784       41.67230       -2.87460
O         51.17635       41.89198       -2.22641
O         49.74247       40.53961       -3.23719
H         47.58333       44.64380       -3.98925
H         48.83924       43.88184       -1.51853
H         49.88612       43.62599       -3.71900
H         48.60215       42.48915       -4.23806
N         47.41846       42.01930       -0.44071
C         46.81415       40.83346        0.15464
C         47.56203       40.24901        1.37010
O         47.21003       39.15327        1.77049
H         48.05906       42.58619        0.09826
H         46.81816       40.02349       -0.60685
H         45.75040       41.02989        0.41469
N         48.58012       40.91085        2.01785
C         49.26604       40.35447        3.18356
C         49.90119       41.45759        4.03798
O         50.15485       42.55122        3.56219
C         50.34052       39.33364        2.71873
C         50.88522       38.44105        3.84849
O         51.38805       40.02747        2.08793
H         48.83637       41.84280        1.74180
H         48.49723       39.86344        3.81114
H         49.86086       38.65513        1.98408
H         52.11917       39.39145        1.87841
H         51.48062       38.97812        4.59927
H         50.05247       37.94032        4.37757
H         51.55098       37.66906        3.40832
N         50.18753       41.19344        5.34028
C         50.88746       42.14204        6.21112
C         52.31408       42.44704        5.71693
O         52.85988       43.44704        6.13956
C         50.87376       41.61139        7.67991
C         51.45631       42.65611        8.66929
C         51.59948       40.25049        7.79672
C         51.47880       42.19365       10.12437
H         49.86425       40.29886        5.71867
H         50.30442       43.09243        6.18297
H         49.80537       41.44745        7.95190
H         50.85050       43.58712        8.60250
H         52.50509       42.89713        8.41201
H         52.68674       40.36612        7.61705
H         51.42514       39.80698        8.79614
H         51.21878       39.49096        7.08909
H         51.89254       43.00650       10.75666
H         50.45856       41.93643       10.47442
H         52.15107       41.31876       10.24464
N         52.95611       41.62117        4.83100
C         54.22555       41.83070        4.11963
C         55.41878       42.41330        4.88842
O         56.40631       41.70645        5.02733
C         53.94274       42.50643        2.76759
C         55.17424       42.55083        1.84754
O         53.43267       43.78951        2.98582
H         52.44929       40.79073        4.53235
H         54.55461       40.80351        3.82899
H         53.17261       41.88875        2.25966
H         53.25154       44.16906        2.09187
H         55.58405       41.53038        1.68990
H         54.88469       42.95691        0.85388
H         55.96083       43.20252        2.27557
N         55.43756       43.70682        5.33323
C         56.59241       44.35642        5.95120
C         57.58209       44.82026        4.90853
O         57.81459       44.13680        3.92195
C         57.23349       43.65146        7.17886
C         56.33318       43.75497        8.41184
O         58.45108       44.28037        7.49497
H         54.63217       44.31129        5.14256
H         56.20208       45.31126        6.34876
H         57.43126       42.58770        6.93319
H         59.05300       43.58982        7.87898
H         56.79805       43.20533        9.25771
H         56.24434       44.82405        8.71377
H         55.32112       43.34913        8.21666
N         58.15233       46.05257        5.06627
C         59.05255       46.67164        4.11930
C         58.63332       48.03823        3.52982
O         59.41871       48.49477        2.70953
C         60.40931       46.88923        4.84406
C         61.08008       45.61469        5.38648
C         61.96828       44.86581        4.37760
C         61.25581       44.33796        3.12823
N         62.16943       43.55518        2.30014
H         57.99804       46.53546        5.95007
H         59.15333       46.01551        3.24323
H         60.18006       47.54379        5.71613
H         61.14928       47.43384        4.21878
H         60.33478       44.94081        5.85495
H         61.77331       45.93084        6.19697
H         62.40992       44.00425        4.92394
H         62.79645       45.53558        4.05980
H         60.89799       45.18328        2.50924
H         60.40080       43.69999        3.43931
H         61.62439       43.10048        1.53251
H         62.89012       44.18505        1.87749
H         62.63614       42.81383        2.87028
N         57.52043       48.80964        3.80410
C         56.34675       48.57824        4.64803
C         56.65206       48.45974        6.12244
O         56.02940       47.66299        6.81183
C         55.44471       47.49328        4.03982
C         54.93337       47.96300        2.67308
C         54.21853       46.86217        1.98951
O         52.89268       46.94253        1.79830
O         54.84358       45.89555        1.58481
H         57.48649       49.70960        3.29843
H         55.74252       49.51332        4.61252
H         54.56007       47.29738        4.68726
H         55.99971       46.55092        3.92172
H         55.75556       48.28436        1.99849
H         54.24770       48.82390        2.83062
N         57.60955       49.24342        6.68488
C         57.95798       49.12886        8.08357
H         58.78912       49.82546        8.31974
H         57.08257       49.38037        8.71836
H         58.29309       48.09214        8.30636
H         58.12550       49.91601        6.09903
Ca        50.89655       45.10711        1.75922
O         52.58883       45.00300       -0.47319
H         53.45288       45.48205       -0.46325
H         52.62617       44.44062       -1.28441
O         50.87558       42.69806        0.68080
H         50.33254       42.52871       -0.12205
H         51.52824       41.96292        0.70043
O         50.81451       45.39605        4.42281
H         51.69214       45.18259        4.82237
H         50.29318       45.81704        5.14802
O         50.02000       47.67787        2.22085
H         49.37879       48.20372        1.68262
H         50.30708       48.28617        2.94513
O         49.69886       46.22210       -0.54783
H         50.14643       46.48006       -1.39115
H         49.13175       46.99852       -0.31685

Ca 1.70



