%chk=loop3.cluster54.chk
%nprocshared=48
%mem=10GB
%nosave
#b3lyp/svp scf=(tight,noincore) Test 
#IOP(5/87=12) Density=Current Pop=(MK,readradii) iop(6/33=2) iop(6/42=6)

loop3.cluster54 

   0  1 
C        104.75373       43.68851       14.09143
C        106.10639       43.39618       13.52088
O        106.26664       42.40042       12.83281
H        104.02196       42.90477       13.80125
H        104.81813       43.72290       15.20016
H        104.40632       44.67192       13.71489
N        107.15032       44.21924       13.80773
C        108.50904       43.96067       13.34269
C        109.35693       43.42427       14.46695
O        108.91948       43.38838       15.61051
C        109.17783       45.22773       12.74603
C        109.21769       46.39390       13.70486
O        108.19531       47.00063       13.98101
O        110.38921       46.79420       14.23503
H        106.97964       45.00578       14.44833
H        108.50692       43.16351       12.56619
H        108.67778       45.54420       11.80881
H        110.22602       44.97716       12.47426
N        110.60964       42.97262       14.18652
C        111.51530       42.47413       15.20031
C        112.35475       41.38140       14.57198
O        113.11703       41.66492       13.65640
C        112.31126       43.67154       15.74566
C        113.20199       43.31338       16.93551
C        113.72980       44.58949       17.60887
C        114.33408       44.32046       18.99441
N        115.48024       43.41445       18.94727
H        110.94218       43.00930       13.21063
H        110.92428       42.03780       16.03751
H        111.55304       44.40526       16.10359
H        112.89919       44.16396       14.93898
H        114.04250       42.66058       16.61079
H        112.57871       42.76634       17.67198
H        112.88108       45.28814       17.78117
H        114.46132       45.10271       16.94521
H        113.55252       43.89334       19.66398
H        114.64914       45.29643       19.42369
H        116.15072       43.70831       18.20143
H        115.96627       43.44354       19.87276
H        115.15661       42.43506       18.77554
N        112.18852       40.08042       14.95291
C        112.82505       38.97699       14.23581
C        112.39771       38.92468       12.77320
O        113.20196       38.52685       11.94112
C        112.63018       37.59749       14.91247
C        111.21416       37.14217       15.14894
O        110.80148       36.12834       14.60826
O        110.43662       37.77426       16.04718
H        111.55781       39.87559       15.73810
H        113.92353       39.15754       14.24817
H        113.13324       37.60540       15.89945
H        113.13931       36.84188       14.27394
N        111.17532       39.37696       12.37468
C        110.81668       39.42529       10.96328
C        109.51938       40.17143       10.70513
O        108.82185       40.51235       11.64853
H        110.52401       39.73684       13.08360
H        110.74642       38.39235       10.55145
H        111.62427       39.96121       10.43914
N        109.10183       40.47599        9.44284
C        109.88441       40.22777        8.23401
C        108.93060       40.22019        7.04339
O        108.28134       41.23211        6.81713
C        110.91366       41.38061        8.03821
C        111.79651       41.25341        6.81414
N        112.58641       42.28903        6.44575
O        111.79682       40.22969        6.14791
H        108.19580       40.96348        9.34763
H        110.41270       39.25820        8.31955
H        111.58178       41.48971        8.91433
H        110.34662       42.33232        7.95130
H        112.58028       43.16848        6.98309
H        113.18251       42.21970        5.60725
N        108.78053       39.15374        6.20606
C        109.46872       37.88059        6.32009
C        108.94359       37.01144        7.43051
O        108.32433       37.50294        8.36049
H        108.14326       39.26633        5.40221
H        110.57278       37.98415        6.36089
H        109.24257       37.32497        5.38457
N        109.06546       35.66386        7.32344
C        108.50396       34.71993        8.27781
C        109.47190       33.55629        8.47674
O        110.36637       33.37122        7.65619
C        107.20402       34.13835        7.66355
C        106.04341       35.09810        7.49971
C        105.23072       35.42705        8.59825
C        105.70905       35.59965        6.23136
C        104.09877       36.23277        8.43091
C        104.58640       36.41917        6.06733
C        103.77284       36.73124        7.16632
O        102.67393       37.49905        7.01384
H        109.49278       35.28888        6.46023
H        108.29953       35.21057        9.25352
H        106.81367       33.29345        8.25000
H        107.47430       33.71787        6.66975
H        105.45171       35.03214        9.57260
H        106.31493       35.35190        5.37006
H        103.46573       36.45792        9.28158
H        104.34050       36.79886        5.08404
H        102.41465       37.85200        6.15035
N        109.28412       32.66079        9.48731
C        109.95893       31.36747        9.54362
C        108.92531       30.23359        9.39682
O        109.30570       29.07483        9.36257
C        110.83752       31.26084       10.83412
C        110.01492       30.84729       12.07983
C        112.00757       30.28991       10.60194
C        110.77473       30.91337       13.40491
H        108.57889       32.87147       10.19976
H        110.64215       31.29215        8.67080
H        111.29296       32.26265       11.00104
H        109.67010       29.80371       11.94218
H        109.13122       31.50247       12.17171
H        112.58682       30.60837        9.70846
H        112.71203       30.30575       11.45697
H        111.64763       29.25316       10.44378
H        110.08833       30.63182       14.23300
H        111.62558       30.20277       13.42380
H        111.14107       31.94427       13.58690
N        107.58751       30.52097        9.27858
C        106.54697       29.51767        9.11782
C        106.25359       28.76215       10.41158
O        105.46400       27.82791       10.37189
C        105.26208       30.19925        8.59634
O        104.72353       31.04775        9.57339
H        107.28586       31.48848        9.25037
H        106.87789       28.81321        8.32502
H        104.50310       29.43939        8.31841
H        105.53129       30.78613        7.68441
H        104.16832       31.71993        9.09839
N        106.84148       29.11607       11.59759
C        106.64090       28.38673       12.84315
C        106.11276       29.31503       13.92357
O        106.79143       30.27151       14.27631
C        107.97506       27.78680       13.28731
H        107.47394       29.92078       11.62203
H        105.93338       27.54429       12.68569
H        108.41676       27.19661       12.45618
H        108.69133       28.58533       13.56973
H        107.82860       27.12543       14.16499
N        104.87769       29.10624       14.46714
C        104.26926       29.96165       15.48717
C        104.33420       31.44478       15.13520
O        104.46856       32.27333       16.02677
C        104.87067       29.68241       16.87018
H        104.31328       28.31991       14.11145
H        103.19641       29.67394       15.55324
H        104.81250       28.59758       17.09936
H        105.93017       30.00920       16.91434
H        104.29217       30.22687       17.64966
N        104.32296       31.84510       13.83486
C        104.44184       33.24838       13.45858
C        103.15580       34.00723       13.71710
O        103.20257       35.22586       13.75755
C        104.75065       33.36611       11.95557
C        106.18419       32.96959       11.57624
C        107.19490       34.01204       11.95426
O        108.25367       33.70808       12.72529
O        107.11360       35.12017       11.46564
H        104.26385       31.13128       13.09320
H        105.27125       33.72601       14.02882
H        104.58372       34.40244       11.59707
H        104.02967       32.71749       11.41421
H        106.21149       32.92052       10.47593
H        106.46004       31.97844       11.98578
N        101.94904       33.37498       13.73401
C        100.69945       34.10898       13.77222
H        100.03589       33.69688       14.55771
H        100.84182       35.19445       13.96526
H        100.20690       34.00353       12.78288
H        101.90283       32.35183       13.62642
Ca       106.55609       39.65347       13.28498
O        103.76948       39.47064       14.08049
H        102.92116       39.31657       13.59527
H        103.64924       39.01768       14.95263
O        105.87995       40.87630       15.69079
H        105.56708       40.34140       16.46094
H        106.39555       41.61941       16.09027
O        106.60466       38.25609       10.84702
H        106.43436       37.28799       10.79948
H        107.41641       38.39744       10.30918
O        105.41141       37.17379       13.28327
H        104.43855       37.15514       13.12290
H        105.72504       36.26834       13.05597
O        104.81364       40.37052       11.21891
H        105.14507       40.15459       10.31243
H        104.39419       41.25985       11.12345
O        106.50627       37.86430       15.72113
H        106.46151       38.11364       16.67698
H        106.98361       36.99762       15.70761
O        108.56577       37.77110       12.83132
H        109.09307       37.60239       13.64332
H        108.26499       36.87477       12.56050
O        108.70926       40.36181       14.83304
H        109.05341       39.47777       15.09741
H        108.57374       40.82739       15.69203

Ca 1.70



