%chk=loop3.cluster195.chk
%nprocshared=48
%mem=10GB
%nosave
#b3lyp/svp scf=(tight,noincore) Test 
#IOP(5/87=12) Density=Current Pop=(MK,readradii) iop(6/33=2) iop(6/42=6)

loop3.cluster195 

   0  1 
C         64.20652       30.58327       59.87899
C         64.74757       29.90332       61.09618
O         64.48894       28.72625       61.29557
H         63.41045       31.29067       60.19217
H         65.01612       31.14768       59.37182
H         63.77969       29.84215       59.17172
N         65.55229       30.59853       61.94587
C         66.08853       30.01090       63.16307
C         66.05643       31.05067       64.27129
O         66.29606       32.21463       63.99610
C         67.51454       29.51372       62.92849
C         67.83019       28.51549       63.99680
O         67.23369       27.45108       64.01555
O         68.68213       28.81810       64.98550
H         65.83807       31.55213       61.68351
H         65.46418       29.13300       63.44642
H         68.23317       30.36319       62.90269
H         67.57726       28.97995       61.95588
N         65.79889       30.68864       65.55808
C         65.59540       31.68798       66.60905
C         66.81578       31.85546       67.49666
O         66.84995       32.80581       68.27493
C         64.32261       31.34034       67.40569
C         63.12508       31.11918       66.46018
C         61.79633       30.83332       67.16859
C         61.29381       32.03958       67.97565
N         59.90337       31.85185       68.38833
H         65.70350       29.69771       65.79223
H         65.43760       32.68100       66.13487
H         64.11768       32.17053       68.11281
H         64.48837       30.40623       67.98651
H         63.33608       30.24380       65.80666
H         62.99509       32.00663       65.80307
H         61.87057       29.92998       67.81403
H         61.05890       30.62126       66.36402
H         61.34801       32.94782       67.33667
H         61.93350       32.20057       68.87141
H         59.56024       32.73251       68.83536
H         59.30615       31.65693       67.55111
H         59.82555       31.06309       69.06946
N         67.88278       31.01532       67.39923
C         69.14690       31.20634       68.09514
C         70.31741       31.40824       67.11241
O         71.42126       31.67576       67.55885
C         69.41937       30.00097       69.02654
C         69.44129       28.67458       68.27550
O         70.51122       28.18643       67.96441
O         68.29070       28.06307       67.88329
H         67.80425       30.20214       66.77794
H         69.10934       32.12974       68.71991
H         68.66455       29.95941       69.84127
H         70.40321       30.17466       69.52331
N         70.13483       31.32417       65.75880
C         71.19367       31.56035       64.78531
C         72.04127       30.34674       64.44423
O         72.68623       30.37645       63.40333
H         69.19474       31.16579       65.38234
H         71.80050       32.45573       65.02893
H         70.66594       31.79638       63.83354
N         72.05326       29.22029       65.21720
C         72.57032       27.95731       64.70295
C         71.45145       27.40006       63.86590
O         70.46696       26.97049       64.43692
C         72.97448       26.99287       65.84962
C         73.47507       25.64975       65.35655
N         74.61427       25.55843       64.63791
O         72.85964       24.63167       65.62965
H         71.47651       29.20246       66.06164
H         73.46622       28.14432       64.07304
H         72.09891       26.83284       66.51132
H         73.77094       27.45669       66.46917
H         75.16604       26.39897       64.42180
H         74.95060       24.63702       64.31872
N         71.48966       27.51582       62.50433
C         70.39517       27.17894       61.59899
C         70.05877       25.72502       61.66278
O         70.47271       24.96930       60.79319
H         72.33217       27.92737       62.08006
H         70.72706       27.42681       60.56741
H         69.49351       27.78558       61.80093
N         69.29593       25.25880       62.68812
C         69.10928       23.85710       62.95537
C         67.97759       23.70878       64.02687
O         68.42652       24.13667       65.30278
C         70.48809       23.29303       63.42290
C         70.73748       21.80722       63.35968
C         70.64835       21.12129       62.13489
C         71.18079       21.11920       64.50148
C         70.99896       19.76806       62.05676
C         71.53677       19.76938       64.41852
C         71.44963       19.09035       63.19480
O         71.80978       17.79360       63.10145
H         68.84883       25.92643       63.31315
H         68.78224       23.38979       61.99784
H         70.70130       23.69062       64.43726
H         71.28477       23.70285       62.77098
H         70.33567       21.63971       61.23719
H         71.28516       21.63601       65.44695
H         70.94135       19.25040       61.10681
H         71.89894       19.25663       65.30068
H         72.14266       17.30149       63.86605
N         67.57830       22.29760       64.07797
C         66.34428       21.95330       64.81024
C         66.56959       21.79328       66.30090
O         67.66672       22.01502       66.79160
C         65.02747       22.71122       64.38567
C         64.76419       22.50431       62.87762
C         64.90923       24.18344       64.82470
C         63.33680       22.84400       62.45203
H         67.46866       21.93617       63.10196
H         66.13889       20.89679       64.52506
H         64.19413       22.19380       64.89652
H         64.89782       21.42359       62.65376
H         65.49328       23.07946       62.26774
H         63.85965       24.52840       64.68434
H         65.13190       24.29067       65.90751
H         65.56638       24.85556       64.23993
H         63.19410       22.53333       61.39526
H         62.60741       22.28266       63.07665
H         63.13733       23.93067       62.53298
N         65.56021       21.29051       67.05936
C         65.66733       20.93107       68.46344
C         65.31362       19.45785       68.66921
O         65.86435       18.84229       69.57057
C         64.74305       21.83474       69.27918
O         63.42138       21.70712       68.83128
H         64.65693       21.14427       66.60561
H         66.70386       21.09040       68.83841
H         65.08672       22.88542       69.14076
H         64.80964       21.56042       70.35469
H         62.89403       22.37908       69.33426
N         64.38847       18.83124       67.87340
C         64.05982       17.41936       67.95390
C         63.57498       17.00383       69.33743
O         64.19461       16.13991       69.94297
C         65.25091       16.59539       67.44441
H         63.88985       19.35549       67.14808
H         63.23035       17.20945       67.24017
H         65.51194       16.93403       66.41746
H         66.14163       16.71887       68.09327
H         64.98141       15.51907       67.39110
N         62.43781       17.50914       69.90369
C         61.59112       18.54045       69.31300
C         60.30741       17.93699       68.76700
O         59.71995       17.12198       69.46477
C         61.21416       19.57021       70.38152
H         62.13365       17.10533       70.80408
H         62.13474       19.10869       68.57100
H         62.11303       20.11622       70.73318
H         60.50056       20.31089       69.95788
H         60.72462       19.07594       71.24772
N         59.71491       18.33986       67.59530
C         60.22716       19.35649       66.66880
C         60.15077       18.85868       65.23513
O         61.14284       18.93680       64.52323
C         59.44595       20.67812       66.83376
C         60.24843       21.86535       66.25996
C         59.51888       23.16302       66.43881
O         58.47826       23.36978       65.83624
O         60.01802       24.11077       67.25635
H         58.78213       17.94903       67.40141
H         61.27461       19.60839       66.86861
H         59.32332       20.88896       67.91825
H         58.43186       20.59701       66.38452
H         60.48285       21.72305       65.18370
H         61.21160       21.92907       66.81675
N         58.98677       18.33441       64.74526
C         58.83630       17.86395       63.38407
H         58.00175       18.41889       62.90735
H         59.75189       18.01006       62.77537
H         58.58326       16.78205       63.39109
H         58.16566       18.25130       65.36044
Ca        68.19739       26.24963       66.38701
O         67.25053       24.73185       68.50131
H         67.86014       24.04436       68.14009
H         67.34336       24.64235       69.48035
O         65.52071       27.38269       66.59932
H         65.46333       27.87669       67.45581
H         64.69915       27.63456       66.10744
O         70.15870       24.57232       67.43767
H         70.86674       24.94159       66.86229
H         70.52689       23.72737       67.79216

Ca 1.70



