%chk=loop4.cluster45.chk
%nprocshared=48
%mem=10GB
%nosave
#b3lyp/svp scf=(tight,noincore) Test 
#IOP(5/87=12) Density=Current Pop=(MK,readradii) iop(6/33=2) iop(6/42=6)

loop4.cluster45 

   -3  1 
C         49.52444       34.22024       47.80290
C         50.02103       33.96433       49.19786
O         50.69801       34.81312       49.75943
H         48.74413       35.00945       47.83544
H         50.35541       34.54854       47.14515
H         49.07270       33.30478       47.36366
N         49.66478       32.81629       49.84359
C         50.05864       32.46243       51.21083
C         49.49522       33.40273       52.29629
O         49.74440       33.15952       53.46873
C         51.59329       32.30124       51.34233
C         52.21746       31.70550       50.10912
O         53.06804       32.33703       49.50258
O         51.79599       30.53452       49.60683
H         49.07777       32.13607       49.33604
H         49.62426       31.45426       51.40010
H         51.81755       31.66888       52.23052
H         52.06516       33.29317       51.49966
N         48.71903       34.48587       51.97880
C         48.10814       35.38299       52.96751
C         47.04384       34.58029       53.71121
O         46.27332       33.90245       53.04553
C         47.45061       36.59270       52.21942
C         48.51540       37.42432       51.44718
C         46.68716       37.52859       53.18224
C         47.88446       38.28425       50.34969
H         48.49883       34.66356       50.99367
H         48.88696       35.79433       53.64457
H         46.72723       36.16284       51.49120
H         49.24401       36.77157       50.92781
H         49.09874       38.05303       52.15747
H         45.90294       36.97845       53.73992
H         47.38895       37.99681       53.90502
H         46.17749       38.34802       52.64033
H         47.40155       37.61868       49.60086
H         47.12652       38.98641       50.74593
H         48.66975       38.87486       49.83393
N         46.89374       34.58523       55.06783
C         47.56463       35.50369       55.97878
C         48.87471       34.90926       56.44215
O         49.89137       35.58912       56.39766
C         46.65174       35.86037       57.18182
C         45.26513       36.30633       56.76582
O         44.47551       35.50397       56.29161
O         44.87362       37.57947       56.95885
H         46.14806       33.98978       55.45743
H         47.74213       36.47894       55.48602
H         47.13926       36.69369       57.73720
H         46.54135       35.00342       57.87823
N         48.93010       33.60175       56.83816
C         50.17240       32.95546       57.22960
C         50.57670       33.37576       58.61603
O         49.73246       33.83987       59.37146
H         48.07572       33.02884       56.79412
H         50.96204       33.20804       56.48612
H         50.04758       31.85342       57.22313
N         51.87830       33.29258       59.01455
C         52.31608       33.94262       60.24688
C         52.22355       35.45136       60.10113
O         52.29280       36.14434       61.10751
C         53.77515       33.56392       60.61929
C         53.80997       32.38956       61.55145
O         53.25724       32.50219       62.77659
O         54.38129       31.35959       61.23697
H         52.57934       32.89194       58.36997
H         51.63243       33.65696       61.07640
H         54.26744       34.38150       61.18887
H         54.38754       33.40067       59.70273
N         52.14677       36.03888       58.87142
C         52.19251       37.47285       58.68571
C         53.55514       38.07121       58.99313
O         53.73286       39.24236       58.68665
H         52.09380       35.46256       58.02047
H         51.38383       37.97123       59.26359
H         51.99942       37.67309       57.60753
N         54.59104       37.33180       59.53219
C         55.94203       37.84980       59.73163
C         56.63014       38.14315       58.40938
O         57.73577       38.66189       58.42370
C         55.93492       39.04294       60.71943
C         55.76459       38.53316       62.15865
C         55.44639       39.65219       63.10661
N         54.17056       40.08792       63.22664
O         56.32703       40.13998       63.79877
H         54.45154       36.34905       59.77806
H         56.58279       37.05943       60.18389
H         55.15148       39.77621       60.45161
H         56.90359       39.58840       60.69234
H         56.71947       38.03986       62.45076
H         54.95924       37.77331       62.24704
H         53.41670       39.64783       62.67702
H         53.93204       40.83625       63.89302
N         56.05914       37.77898       57.22230
C         56.69287       38.06329       55.94629
C         57.98689       37.27741       55.75777
O         58.16409       36.21549       56.33548
C         55.71399       37.86840       54.75204
C         55.21077       36.41984       54.60705
C         54.51504       38.82864       54.86716
H         55.14708       37.31689       57.21617
H         56.95800       39.14399       55.95755
H         56.26062       38.13779       53.82192
H         54.55760       36.33600       53.71293
H         56.06161       35.72024       54.48052
H         54.61299       36.09479       55.48384
H         53.87069       38.74595       53.96685
H         53.89225       38.60511       55.75932
H         54.86694       39.88007       54.94072
N         58.93974       37.79077       54.93463
C         60.26292       37.20393       54.71760
C         60.77455       37.68970       53.37042
O         60.67445       38.86617       53.05573
C         61.19620       37.55533       55.89268
C         62.68178       37.38619       55.62435
N         63.22423       36.18760       55.30304
O         63.40894       38.36451       55.71354
H         58.73571       38.69994       54.49498
H         60.18830       36.09415       54.65501
H         60.90152       36.93823       56.77024
H         61.03273       38.62111       56.15140
H         62.64373       35.34249       55.21994
H         64.24180       36.11337       55.13925
N         61.23861       36.77338       52.48243
C         61.46501       37.07036       51.07560
C         61.49584       35.73267       50.36337
O         62.49221       35.34356       49.77971
C         62.72873       37.92928       50.86312
C         62.87915       38.27010       49.40232
C         61.87703       39.00352       48.74226
C         64.00507       37.83943       48.68439
C         61.99477       39.29035       47.38242
C         64.12262       38.13200       47.32361
C         63.11607       38.85794       46.66852
O         63.21972       39.14459       45.35607
H         61.31471       35.79336       52.79973
H         60.57335       37.60508       50.68746
H         63.61584       37.37468       51.24295
H         62.65515       38.87717       51.43637
H         61.00120       39.34560       49.27946
H         64.78432       37.27013       49.17595
H         61.21196       39.84771       46.88366
H         64.99248       37.79049       46.77808
H         63.98952       38.87157       44.83753
N         60.41160       34.92643       50.52584
C         60.45993       33.50672       50.23881
C         60.50471       33.19048       48.74286
O         61.49866       32.59989       48.33285
C         59.33963       32.80137       51.04688
C         59.40794       31.26910       51.08289
C         60.57387       30.75572       51.89074
O         61.72094       30.92656       51.51190
O         60.34811       30.09191       53.04112
H         59.60711       35.29362       51.05329
H         61.40370       33.14577       50.69392
H         58.35084       33.11538       50.68053
H         59.38349       33.15006       52.10456
H         59.41660       30.84476       50.05759
H         58.48121       30.92352       51.59042
N         59.51322       33.47715       47.83686
C         58.25722       34.16854       48.13492
C         57.94669       35.25324       47.10275
O         58.69569       35.43656       46.15683
C         57.10303       33.14180       48.17547
C         56.82089       32.44131       46.84016
C         55.61256       31.56749       46.98222
O         55.57975       30.60192       47.92031
O         54.64489       31.74611       46.26319
H         59.64173       33.13478       46.87371
H         58.30984       34.66168       49.11899
H         56.17908       33.65690       48.51246
H         57.33181       32.35796       48.92465
H         57.69028       31.81851       46.54434
H         56.62864       33.18833       46.03880
N         56.79813       35.98487       47.22449
C         56.39595       36.96489       46.23672
H         55.42834       37.42087       46.54214
H         57.15722       37.76646       46.15337
H         56.24903       36.47677       45.24898
H         56.17822       35.82898       48.02907
Ca        52.54928       30.12215       47.52584
O         53.29334       28.07524       45.77916
H         52.55770       27.66252       45.26161
H         53.98560       28.29740       45.10785
O         52.26191       31.18218       44.65967
H         53.09300       31.49020       44.21852
H         51.59326       31.87761       44.43921
O         53.91208       28.08303       48.90492
H         54.89830       28.06257       48.98301
H         53.62591       27.14449       49.03117
O         50.28854       28.58139       47.25916
H         50.26852       28.02841       48.08003
H         49.81822       28.04497       46.57453

Ca 1.70



