%chk=loop3.cluster167.chk
%nprocshared=48
%mem=10GB
%nosave
#b3lyp/svp scf=(tight,noincore) Test 
#IOP(5/87=12) Density=Current Pop=(MK,readradii) iop(6/33=2) iop(6/42=6)

loop3.cluster167 

   0  1 
C         96.66301       57.38325       30.78768
C         97.22357       56.00345       30.75810
O         96.78373       55.15937       31.52893
H         95.78067       57.42748       31.46041
H         97.44413       58.07747       31.15985
H         96.35693       57.67820       29.76302
N         98.21330       55.69191       29.87713
C         98.77865       54.35910       29.81651
C         99.96423       54.24486       30.76545
O        100.51503       55.26169       31.17481
C         99.13863       54.01090       28.36592
C         99.47856       52.56830       28.26140
O         98.54858       51.65025       28.58203
O        100.59012       52.21880       27.91174
H         98.53915       56.40948       29.20970
H         97.99281       53.63710       30.13851
H         99.96407       54.65958       28.01518
H         98.27086       54.18868       27.69619
N        100.35160       53.02490       31.23427
C        101.40865       52.85660       32.23312
C        102.80900       53.06722       31.67210
O        103.73400       53.27216       32.44066
C        101.23338       51.53032       32.99450
C        101.29547       50.24518       32.13209
C        100.91255       48.98322       32.93256
C         99.46186       49.01291       33.46941
N         99.16410       47.82168       34.26081
H         99.79373       52.21094       30.94340
H        101.25801       53.65180       32.99941
H        100.23028       51.62527       33.44797
H        101.97499       51.45846       33.81953
H        102.32736       50.12989       31.73469
H        100.61132       50.29224       31.26328
H        101.62261       48.85790       33.77580
H        101.01206       48.10341       32.25758
H         98.74888       49.08573       32.61715
H         99.29642       49.88495       34.13064
H         99.78745       47.79568       35.10083
H         98.17114       47.87121       34.58707
H         99.29605       46.95703       33.68971
N        103.01160       53.06738       30.32739
C        104.26347       53.47022       29.69126
C        104.03013       54.70760       28.81140
O        104.92801       55.53398       28.70768
C        104.91765       52.27334       28.96243
C        104.00121       51.51198       28.04924
O        103.51378       52.04821       27.07646
O        103.72572       50.21804       28.29921
H        102.23515       52.78632       29.72578
H        105.01104       53.78534       30.45304
H        105.25553       51.55307       29.73886
H        105.81705       52.61203       28.40283
N        102.84208       54.91309       28.16831
C        102.52232       56.09706       27.38069
C        102.54979       55.80400       25.88862
O        102.04561       56.59956       25.11175
H        102.12264       54.18762       28.20688
H        103.17250       56.96379       27.62105
H        101.48877       56.39886       27.66304
N        103.15737       54.67752       25.42397
C        103.17788       54.25266       24.02983
C        101.91352       53.45716       23.74728
O        101.63565       52.50718       24.45826
C        104.47761       53.44562       23.79792
C        104.55740       52.78035       22.45150
N        105.19388       53.36560       21.41491
O        104.07958       51.67047       22.30918
H        103.64244       54.08500       26.09787
H        103.22882       55.13083       23.35153
H        104.61295       52.66051       24.57191
H        105.33688       54.13986       23.92207
H        105.62371       54.29405       21.51749
H        105.24852       52.88161       20.50567
N        101.07853       53.81942       22.72981
C         99.77221       53.20206       22.51963
C         99.76213       51.71736       22.17900
O         98.68132       51.14750       22.11829
H        101.33961       54.61605       22.13079
H         99.25022       53.73345       21.69438
H         99.17445       53.36473       23.43574
N        100.90303       51.03448       21.88816
C        100.89509       49.62961       21.48722
C        100.70695       48.69960       22.66894
O        101.22525       48.96443       23.74196
C        102.16688       49.22295       20.72171
C        102.26841       49.92251       19.38349
C        101.86652       49.25864       18.21106
C        102.76807       51.23070       19.28730
C        101.97247       49.89396       16.96946
C        102.88584       51.85701       18.04966
C        102.49243       51.19012       16.88460
O        102.61725       51.78573       15.68248
H        101.78276       51.54845       21.86925
H        100.06452       49.46050       20.76442
H        102.08464       48.12972       20.52557
H        103.09458       49.36000       21.31806
H        101.46466       48.25380       18.26046
H        103.08621       51.76671       20.15601
H        101.65780       49.37591       16.07297
H        103.28915       52.86044       17.99882
H        103.00368       52.66930       15.59546
N        100.01037       47.53768       22.49632
C         99.73755       46.55613       23.54339
C        100.98732       45.80965       23.99458
O        102.10870       46.20320       23.69188
C         98.82425       47.17806       24.67091
C         98.57830       46.23691       25.88647
C         97.49090       47.58659       24.02738
C         97.52197       46.68461       26.88933
H         99.62756       47.33855       21.56041
H         99.14234       45.74915       23.06131
H         99.30664       48.09339       25.07569
H         99.54966       46.14480       26.42504
H         98.20128       45.24840       25.56296
H         96.85050       48.12781       24.75166
H         97.65833       48.27060       23.17051
H         96.95568       46.68100       23.66937
H         97.62097       46.06828       27.80958
H         97.61471       47.75341       27.14713
H         96.51261       46.49821       26.46468
N        100.82322       44.65153       24.68813
C        101.86767       43.79992       25.19922
C        101.61958       42.31748       24.84999
O        102.47994       41.50714       25.15336
C        101.86593       43.98388       26.72698
O        100.60135       43.67392       27.25502
H         99.87480       44.36641       24.90631
H        102.85947       44.11723       24.80602
H        102.06847       45.04859       26.96776
H        102.67023       43.38628       27.21190
H        100.70542       42.84612       27.78170
N        100.43131       41.88401       24.29076
C        100.09871       40.48016       24.05751
C        100.37230       39.61524       25.28727
O        101.22346       38.73862       25.20738
C        100.81083       39.98166       22.79369
H         99.68751       42.54749       24.06247
H         99.01315       40.40204       23.82115
H        100.47522       40.58243       21.91966
H        101.91287       40.06211       22.88278
H        100.53270       38.92287       22.59886
N         99.72518       39.78499       26.48102
C         98.61768       40.71757       26.70523
C         97.31107       40.05906       26.25376
O         97.33111       38.85322       26.04905
C         98.54225       40.99437       28.22057
H        100.00623       39.17211       27.26307
H         98.83561       41.67022       26.18886
H         97.88157       41.84750       28.45621
H         98.19650       40.09105       28.76992
H         99.54768       41.22858       28.62499
N         96.10609       40.70050       26.14498
C         95.85047       42.13106       26.27103
C         94.99596       42.57787       25.08417
O         95.39304       43.47577       24.35430
C         95.08250       42.37326       27.58320
C         94.87868       43.85634       27.91458
C         94.19537       43.97732       29.24606
O         93.05720       43.56007       29.39283
O         94.84896       44.51660       30.29249
H         95.29011       40.10003       25.95629
H         96.80117       42.70748       26.30990
H         95.66851       41.92720       28.41003
H         94.10242       41.85251       27.55848
H         94.27258       44.37513       27.13926
H         95.87298       44.34707       27.97082
N         93.78498       41.97730       24.85495
C         92.89740       42.32338       23.76454
H         91.93843       42.69164       24.18754
H         93.31828       43.09703       23.09203
H         92.68117       41.41025       23.16786
H         93.46253       41.23287       25.48825
Ca       101.51531       50.41262       26.12843
O         98.95403       51.13911       25.31298
H         98.30019       50.84653       25.99388
H         98.79373       52.10984       25.22464
O        102.57194       47.97835       26.58578
H        102.06063       47.40947       25.96134
H        102.96297       47.35889       27.24668
O        103.95758       49.73900       24.96921
H        103.97373       50.47989       24.32240
H        104.57605       49.06694       24.59445
O         99.77745       48.89461       27.60676
H         99.78948       49.72445       28.13525
H         99.58256       48.19682       28.27626

Ca 1.70



