%chk=loop1.cluster92.chk
%nprocshared=48
%mem=10GB
%nosave
#b3lyp/svp scf=(tight,noincore) Test 
#IOP(5/87=12) Density=Current Pop=(MK,readradii) iop(6/33=2) iop(6/42=6)

loop1.cluster92 

   0  1 
C         45.81735       -6.98071       29.09148
C         46.55357       -7.84211       30.06228
O         47.43465       -8.57118       29.65556
H         44.95589       -6.47420       29.57703
H         46.51898       -6.20862       28.71493
H         45.44339       -7.59285       28.24555
N         46.27710       -7.77358       31.38443
C         46.96093       -8.54744       32.41398
C         45.94582       -9.32558       33.24698
O         46.28980       -9.81888       34.30761
C         47.85653       -7.63207       33.29556
C         47.19818       -6.44626       33.94255
O         46.11391       -6.05493       33.56654
O         47.86371       -5.73972       34.87366
H         45.52883       -7.12735       31.67031
H         47.67086       -9.29067       31.98109
H         48.68930       -7.22988       32.68066
H         48.31593       -8.25653       34.09214
N         44.67818       -9.52743       32.76563
C         43.63299      -10.18767       33.52492
C         43.02128      -11.35635       32.72249
O         41.86346      -11.23493       32.34674
C         42.55573       -9.10315       33.83321
C         43.12363       -7.93221       34.65924
C         42.07555       -6.82989       34.91095
C         42.60421       -5.67275       35.78836
N         43.69303       -4.93348       35.15558
H         44.41182       -9.15492       31.84785
H         43.99013      -10.55365       34.50433
H         41.71328       -9.56283       34.39518
H         42.16005       -8.69801       32.87412
H         43.97085       -7.49465       34.09991
H         43.49316       -8.32323       35.63184
H         41.21096       -7.28144       35.44234
H         41.71477       -6.42177       33.94100
H         42.95672       -6.08062       36.76100
H         41.77381       -4.96280       35.99001
H         43.38543       -4.51032       34.24889
H         44.03341       -4.18027       35.79462
H         44.48599       -5.57891       35.01633
N         43.66237      -12.53919       32.41969
C         45.04641      -12.93468       32.69858
C         45.34678      -13.00421       34.21151
O         44.41166      -12.84767       34.98035
C         45.96812      -12.15226       31.74307
C         46.95483      -12.94331       30.95673
O         48.12108      -12.34080       30.70619
O         46.65276      -13.98773       30.39495
H         43.10682      -13.23435       31.89589
H         45.12131      -13.99116       32.36275
H         46.55193      -11.40247       32.27619
H         45.36484      -11.65044       30.95876
N         46.56100      -13.34703       34.74600
C         47.78264      -13.53755       33.98387
C         48.86546      -14.27239       34.76363
O         48.64715      -14.62635       35.91730
H         46.59703      -13.47692       35.77085
H         48.14592      -12.54232       33.65065
H         47.56813      -14.19184       33.12238
N         50.05578      -14.61973       34.19400
C         50.47858      -14.18670       32.86184
C         50.73974      -12.69485       32.96015
O         50.16118      -11.93807       32.19656
C         51.71559      -15.03257       32.42897
C         52.27109      -15.05535       31.00256
O         53.19455      -15.81882       30.77430
O         51.80912      -14.31766       29.97189
H         50.70567      -15.19930       34.74695
H         49.68457      -14.42794       32.12374
H         51.42311      -16.09083       32.60733
H         52.56052      -14.79552       33.10852
N         51.52825      -12.17463       33.95067
C         51.73240      -10.73813       34.08959
C         52.88963      -10.26582       33.23018
O         53.74146       -9.53302       33.71345
H         51.90356      -12.80062       34.67961
H         51.92069      -10.47624       35.15377
H         50.79692      -10.19882       33.81244
N         52.98715      -10.68095       31.93868
C         54.02611      -10.29125       30.99770
C         53.41700      -10.23776       29.61410
O         52.53470      -11.03418       29.31255
C         55.18999      -11.29847       30.97732
C         54.72710      -12.73058       30.68431
O         55.85711      -11.26540       32.20962
H         52.30505      -11.35930       31.60286
H         54.42738       -9.28424       31.26073
H         55.88671      -10.96498       30.16955
H         56.78747      -11.56532       32.03300
H         55.59871      -13.41168       30.64643
H         54.04094      -13.07209       31.48545
H         54.20971      -12.79810       29.70524
N         53.83244       -9.31984       28.71320
C         53.15449       -9.14794       27.44032
C         54.15346       -9.32688       26.31767
O         54.42503       -8.39645       25.57118
C         52.33590       -7.82998       27.53433
C         51.23772       -7.76470       26.45168
C         53.19672       -6.55729       27.60435
C         50.35575       -6.52391       26.59152
H         54.60226       -8.68221       28.96768
H         52.39208       -9.94587       27.29107
H         51.79353       -7.89654       28.50613
H         50.58354       -8.65801       26.57591
H         51.67546       -7.79453       25.43216
H         53.61747       -6.30313       26.61299
H         52.57219       -5.70848       27.95244
H         54.01686       -6.65455       28.34109
H         50.93412       -5.61420       26.32757
H         49.49101       -6.59549       25.90150
H         49.97706       -6.43004       27.63276
N         54.72557      -10.55387       26.13314
C         55.71372      -10.83404       25.09816
C         55.09283      -11.59619       23.93778
O         55.82331      -11.98328       23.03935
C         56.91695      -11.61281       25.71253
C         56.63362      -13.11302       25.90634
O         57.27550      -11.05416       26.95030
H         54.41057      -11.33553       26.73004
H         56.11437       -9.87833       24.69146
H         57.79231      -11.56764       25.02305
H         57.61265      -10.13946       26.76920
H         55.69575      -13.28726       26.47038
H         56.55202      -13.61738       24.91865
H         57.47720      -13.59790       26.43972
N         53.73986      -11.83486       23.89332
C         53.06276      -12.58354       22.83491
C         53.40336      -14.06698       22.93949
O         54.27926      -14.42916       23.71286
C         53.35410      -11.96810       21.43034
C         53.04576      -10.45613       21.41099
O         52.60096      -12.63316       20.44596
H         53.13591      -11.45688       24.63463
H         51.97099      -12.50457       23.03391
H         54.42732      -12.10328       21.18926
H         52.57040      -12.06854       19.63033
H         53.54072       -9.91845       22.24653
H         53.43111      -10.01192       20.46814
H         51.95124      -10.28584       21.47140
N         52.71921      -14.99164       22.20139
C         53.09518      -16.39799       22.17122
C         52.07188      -17.45342       22.63310
O         52.45583      -18.61201       22.53211
C         53.53697      -16.74225       20.72898
C         54.68919      -15.85272       20.23978
C         55.14380      -16.28418       18.84318
C         56.25118      -15.36820       18.30539
N         56.38858      -15.52536       16.85763
H         51.99515      -14.67064       21.55499
H         53.97677      -16.57264       22.82289
H         52.66967      -16.64027       20.03579
H         53.88721      -17.79647       20.69378
H         55.54141      -15.90390       20.95060
H         54.33232      -14.80095       20.18203
H         54.26266      -16.22870       18.17092
H         55.51441      -17.33587       18.85477
H         57.21022      -15.60388       18.82123
H         56.00263      -14.30370       18.50995
H         55.53777      -15.12775       16.39374
H         57.22315      -14.99061       16.52674
H         56.48831      -16.53196       16.59426
N         50.80590      -17.28018       23.13745
C         50.00924      -16.09540       23.44035
C         49.73242      -15.23999       22.22915
O         49.75581      -14.01817       22.31917
C         50.47493      -15.36431       24.72327
C         49.27519      -14.68470       25.40931
C         49.64101      -14.06262       26.71330
O         50.41224      -13.11700       26.75862
O         49.08764      -14.53985       27.84282
H         50.30736      -18.16368       23.34117
H         49.01472      -16.52568       23.70185
H         51.29911      -14.65247       24.51719
H         50.85517      -16.12188       25.44513
H         48.51813      -15.47094       25.63274
H         48.80563      -13.92216       24.75753
N         49.49654      -15.83567       21.02935
C         49.30022      -15.07285       19.81954
H         48.41068      -14.41884       19.92326
H         50.20108      -14.45593       19.60931
H         49.14432      -15.76690       18.96678
H         49.49235      -16.86499       20.96635
Ca        49.99357      -13.09365       29.84780
O         47.64577      -11.40606       27.98635
H         47.52368      -10.77297       28.73349
H         46.75992      -11.83680       27.89786
O         50.21363       -9.90103       29.75657
H         49.55125       -9.28624       29.37522
H         50.79078       -9.30915       30.29864

Ca 1.70



