%chk=loop3.cluster66.chk
%nprocshared=48
%mem=10GB
%nosave
#b3lyp/svp scf=(tight,noincore) Test 
#IOP(5/87=12) Density=Current Pop=(MK,readradii) iop(6/33=2) iop(6/42=6)

loop3.cluster66 

   0  1 
C        112.63801       49.92932       15.72950
C        113.87990       49.89498       14.88303
O        114.04925       48.97867       14.09222
H        111.81808       49.36657       15.23594
H        112.83300       49.52724       16.74460
H        112.28735       50.98099       15.82426
N        114.74028       50.94783       14.92060
C        115.86426       51.09545       13.99701
C        117.01470       50.14744       14.30231
O        116.93787       49.39515       15.26749
C        116.31707       52.57600       13.93723
C        116.73711       53.17677       15.25337
O        115.80474       53.64931       16.10474
O        117.91522       53.40444       15.47140
H        114.51067       51.71912       15.55985
H        115.50806       50.85383       12.97102
H        115.47893       53.18768       13.53998
H        117.14106       52.68819       13.20473
N        118.13048       50.13623       13.50744
C        119.25956       49.24549       13.74209
C        119.77090       48.67289       12.43343
O        120.11047       49.44190       11.53784
C        120.34380       50.00502       14.51714
C        121.44373       49.04468       14.99074
C        122.29709       49.60406       16.13125
C        122.92084       50.97184       15.83882
N        123.94265       51.29065       16.83881
H        118.20918       50.82575       12.74328
H        118.94170       48.41078       14.40327
H        119.85029       50.43845       15.41253
H        120.77630       50.84095       13.91912
H        122.07964       48.75732       14.12540
H        120.98249       48.11852       15.39981
H        123.08856       48.85448       16.34062
H        121.66916       49.70590       17.04728
H        122.11083       51.73645       15.86395
H        123.38476       50.98927       14.82881
H        124.08948       52.32426       16.87534
H        123.66841       50.95307       17.79063
H        124.84128       50.83114       16.56222
N        119.86815       47.32034       12.24302
C        120.30047       46.75102       10.97032
C        119.26688       46.97204        9.86986
O        119.58233       46.77096        8.71143
C        120.68934       45.26370       11.10075
C        119.56522       44.36652       11.52411
O        119.63036       43.70929       12.69807
O        118.61602       44.18800       10.78180
H        119.63763       46.69000       13.02822
H        121.23390       47.28001       10.66989
H        121.50485       45.19354       11.85129
H        121.08355       44.88865       10.13141
N        118.02082       47.44057       10.17721
C        117.09338       47.84145        9.13624
C        115.93140       48.64277        9.70922
O        115.61293       48.49330       10.87327
H        117.76410       47.59225       11.15327
H        116.74942       46.98286        8.52060
H        117.67602       48.53346        8.50176
N        115.31936       49.61886        8.98081
C        115.64730       49.92031        7.59577
C        114.36312       50.29149        6.88216
O        113.71176       51.22665        7.33176
C        116.67708       51.08395        7.54996
C        117.35655       51.25575        6.20459
N        118.27416       52.23108        6.02288
O        117.10986       50.49646        5.28309
H        114.63633       50.22170        9.47348
H        116.11373       49.03942        7.11748
H        117.49348       50.87567        8.27532
H        116.19137       52.03392        7.86410
H        118.50612       52.88449        6.78368
H        118.75391       52.32565        5.11436
N        113.89373       49.65260        5.77451
C        114.54469       48.56301        5.06111
C        114.48141       47.22590        5.74922
O        114.12982       47.14247        6.91630
H        113.01575       50.00836        5.36572
H        115.57307       48.80628        4.74904
H        113.96001       48.42550        4.12671
N        114.70143       46.10638        4.99929
C        114.40978       44.76232        5.47674
C        115.42824       43.74118        4.99308
O        115.93386       43.85265        3.88480
C        113.05949       44.32121        4.86608
C        111.87638       45.11657        5.36863
C        111.30247       44.82403        6.61645
C        111.31269       46.13154        4.58088
C        110.19301       45.53228        7.07525
C        110.20280       46.84739        5.04419
C        109.63891       46.54631        6.29376
O        108.56270       47.21978        6.74645
H        114.90440       46.22927        3.99458
H        114.33068       44.72762        6.58386
H        112.85880       43.24668        5.07156
H        113.13794       44.41853        3.75987
H        111.69236       44.03723        7.22721
H        111.73642       46.37134        3.61433
H        109.75956       45.28522        8.03715
H        109.77871       47.63113        4.43132
H        108.14646       47.92131        6.22667
N        115.62001       42.61413        5.73387
C        116.26745       41.40193        5.24828
C        115.38154       40.14397        5.45371
O        115.68488       39.11401        4.86878
C        117.72359       41.36206        5.78994
C        117.88796       41.22517        7.32833
C        118.60375       40.37674        5.01475
C        117.60733       39.84806        7.91863
H        115.25998       42.61746        6.67367
H        116.35470       41.50208        4.14453
H        118.12257       42.37146        5.54002
H        117.24016       41.96276        7.82958
H        118.93416       41.47879        7.59624
H        118.33119       39.32412        5.22240
H        118.49645       40.55556        3.92334
H        119.66831       40.54566        5.28177
H        118.28380       39.07656        7.49334
H        117.76938       39.86803        9.01676
H        116.56058       39.58249        7.75206
N        114.24956       40.17341        6.23517
C        113.22590       39.13387        6.26626
C        113.38262       38.22390        7.48046
O        112.40783       37.95626        8.16840
C        111.83979       39.83673        6.29933
O        111.73576       40.77624        5.26428
H        114.02202       41.01400        6.74083
H        113.31003       38.51077        5.35207
H        111.74909       40.36982        7.27829
H        111.01230       39.10185        6.21966
H        110.97776       41.37337        5.50617
N        114.60539       37.71696        7.79843
C        114.84978       36.80165        8.90976
C        114.26111       37.26196       10.24214
O        114.84710       38.09798       10.91884
C        116.36460       36.56921        9.05898
H        115.39293       37.95365        7.18673
H        114.36783       35.83789        8.64464
H        116.86906       37.52209        9.33532
H        116.58355       35.82273        9.84869
H        116.80253       36.22307        8.09899
N        113.08304       36.71088       10.67757
C        112.47946       36.94042       11.99082
C        112.16881       38.39960       12.29489
O        111.93026       38.74047       13.44537
C        113.36023       36.30741       13.06879
H        112.59193       36.05902       10.04874
H        111.51607       36.38682       12.02522
H        113.62358       35.27250       12.75983
H        114.29135       36.88688       13.23115
H        112.79370       36.24339       14.02260
N        112.16390       39.31893       11.29830
C        111.98641       40.73961       11.53025
C        110.59575       41.07854       12.00625
O        110.44437       41.99806       12.79965
C        112.29439       41.51796       10.25439
C        113.72233       41.22350        9.77299
C        114.16884       42.31927        8.89101
O        113.40977       42.77354        8.05675
O        115.39019       42.85452        9.04674
H        112.32148       39.00381       10.33861
H        112.73165       41.08225       12.28235
H        112.19548       42.59655       10.46888
H        111.56993       41.28712        9.44055
H        113.74555       40.26033        9.22542
H        114.45022       41.15640       10.60925
N        109.51871       40.39287       11.54098
C        108.17730       40.72099       11.96256
H        107.45563       40.02349       11.48978
H        108.09449       40.63151       13.06689
H        107.93101       41.75929       11.65360
H        109.65397       39.61435       10.87863
Ca       113.86264       46.74195       12.00796
O        113.21527       45.33049        9.58620
H        113.04461       45.58263        8.64788
H        114.10703       44.91005        9.55623
O        111.49645       46.38646       13.42329
H        111.32173       45.60340       14.00192
H        110.81474       46.32865       12.70811
O        114.38256       45.55275       14.56642
H        113.93932       44.91785       15.18129
H        114.80654       46.22665       15.15362
O        111.74001       47.95999       10.72110
H        111.05736       48.53780       11.14428
H        111.39777       47.77597        9.81154
O        115.55514       44.57854       11.67798
H        116.51791       44.75640       11.60584
H        115.42047       43.73904       11.18395
O        113.09666       44.02960       12.54430
H        113.49412       43.23367       12.97667
H        112.19318       43.75489       12.26289
O        116.50512       46.74830       13.12814
H        116.69083       47.61281       13.55867
H        117.17580       46.12806       13.50547

Ca 1.70



