%chk=loop2.cluster110.chk
%nprocshared=48
%mem=10GB
%nosave
#b3lyp/svp scf=(tight,noincore) Test 
#IOP(5/87=12) Density=Current Pop=(MK,readradii) iop(6/33=2) iop(6/42=6)

loop2.cluster110 

   -2  1 
C         48.80060       75.29301       25.46213
C         48.65130       73.79759       25.43357
O         47.73571       73.27782       26.05154
H         49.69881       75.61978       24.89504
H         47.90495       75.77763       25.02483
H         48.92464       75.63073       26.51413
N         49.54355       73.03625       24.74135
C         49.55803       71.57334       24.77278
C         49.86799       71.09576       26.19083
O         49.23208       70.17172       26.67319
C         50.65625       71.06776       23.81725
C         50.68423       69.56898       23.73155
O         49.80844       68.97116       23.12638
O         51.67750       68.88043       24.32443
H         50.27560       73.52118       24.19961
H         48.57989       71.17227       24.41898
H         51.63733       71.43741       24.18382
H         50.50180       71.47457       22.79247
N         50.81325       71.75264       26.92787
C         51.12625       71.49323       28.33206
C         49.89263       71.57112       29.23146
O         49.82039       70.88164       30.23949
C         51.95077       70.21740       28.51539
H         51.29356       72.55310       26.49029
H         51.79762       72.32486       28.64455
H         52.38111       70.19946       29.54135
H         51.33557       69.30899       28.35983
H         52.79802       70.21611       27.79549
N         48.88888       72.43540       28.91289
C         47.69918       72.68793       29.71778
C         46.78036       71.47800       29.90564
O         46.01547       71.45893       30.86023
C         48.07291       73.39921       31.03794
C         49.03640       74.53616       30.79079
O         50.20675       74.58324       31.45347
O         48.78350       75.39373       29.96208
H         48.99303       72.99934       28.06389
H         47.08758       73.42727       29.15427
H         48.54321       72.69322       31.75438
H         47.14358       73.79930       31.50042
N         46.76001       70.45303       29.00176
C         45.87640       69.30019       29.13936
C         44.41364       69.62927       28.93563
O         44.08603       70.74795       28.56400
H         47.40998       70.46912       28.20916
H         46.02449       68.84818       30.14244
H         46.13740       68.53821       28.37282
N         43.47145       68.66041       29.16873
C         42.02895       68.85172       29.00722
C         41.60535       68.93002       27.55092
O         40.44036       69.20484       27.29617
C         41.52705       70.00290       29.90743
C         41.82559       69.64092       31.34240
N         42.88075       70.18695       31.98398
O         41.14643       68.79577       31.90583
H         43.79012       67.74321       29.51207
H         41.50365       67.94018       29.36653
H         40.43203       70.17417       29.80917
H         42.00684       70.96100       29.63183
H         43.49629       70.85042       31.49733
H         43.10220       69.91574       32.95339
N         42.46808       68.60430       26.53942
C         42.03997       68.54381       25.15170
C         42.61423       69.70028       24.40311
O         43.22172       69.48739       23.35977
H         43.44985       68.37176       26.74602
H         40.93775       68.57699       25.05873
H         42.37642       67.57879       24.70391
N         42.53434       70.96624       24.91686
C         43.29241       72.05726       24.32817
C         42.57741       73.38647       24.42058
O         42.04818       73.72244       25.47523
C         44.66706       72.23508       25.04601
C         45.33012       70.92519       25.43760
O         45.58779       72.86857       24.19452
H         42.10729       71.10033       25.84911
H         43.51967       71.81933       23.26656
H         44.53633       72.80854       25.99646
H         45.24996       73.75361       23.95456
H         44.70337       70.36117       26.14927
H         45.52477       70.31565       24.53361
H         46.29260       71.14816       25.94084
N         42.72745       74.28444       23.41365
C         42.49345       75.71565       23.59134
C         43.53123       76.28695       24.55405
O         44.58867       75.70525       24.73279
C         42.51302       76.46997       22.22339
C         43.86668       76.33670       21.45476
C         41.36410       75.95559       21.34161
C         44.82483       77.49296       21.70440
H         43.15450       73.94713       22.54166
H         41.48025       75.84649       24.03972
H         42.28740       77.55014       22.37924
H         43.68877       76.34201       20.35858
H         44.38772       75.38722       21.68020
H         41.34722       76.52286       20.38588
H         41.47840       74.87738       21.10965
H         40.38560       76.12108       21.84223
H         44.37752       78.42682       21.30068
H         45.05518       77.62513       22.77794
H         45.76908       77.29442       21.15304
N         43.24888       77.37554       25.29646
C         44.12670       77.87572       26.33864
C         43.45591       77.52439       27.64926
O         43.26974       78.36877       28.50831
C         44.44306       79.37614       26.12356
C         45.50138       79.94078       27.04023
O         46.12479       79.16027       27.94718
O         45.85121       81.10318       26.90467
H         42.31944       77.75691       25.20866
H         45.10159       77.33680       26.31383
H         43.51454       79.97345       26.22696
H         44.82848       79.50369       25.08864
N         43.08330       76.22802       27.85073
C         42.60876       75.72678       29.12361
C         41.27828       76.28187       29.61915
O         41.25792       76.70127       30.76922
C         42.55147       74.18054       29.12092
C         42.35133       73.68583       30.52843
C         41.07026       73.35365       30.99930
C         43.45169       73.60068       31.39351
C         40.89790       72.93987       32.32345
C         43.27697       73.18143       32.71345
C         42.00069       72.85141       33.17913
H         43.25118       75.54434       27.10067
H         43.39142       75.98883       29.86683
H         43.50698       73.76002       28.73582
H         41.75925       73.78487       28.45684
H         40.20916       73.43081       30.34731
H         44.44308       73.85582       31.03914
H         39.91014       72.68902       32.68701
H         44.13271       73.10470       33.37063
H         41.86836       72.52112       34.20043
N         40.08881       76.19820       28.93835
C         39.89511       75.77654       27.55513
C         39.72126       76.99243       26.61321
O         39.36852       76.80171       25.45695
C         38.55865       75.02021       27.68997
C         37.77036       75.90485       28.66065
C         38.83809       76.30869       29.66923
H         40.67740       75.11257       27.15616
H         38.02695       74.80071       26.73904
H         38.75874       74.05382       28.20733
H         37.44309       76.81187       28.11178
H         36.87865       75.42575       29.12585
H         38.65836       77.31312       30.11165
H         38.85851       75.54804       30.48367
N         39.87745       78.26842       27.07686
C         39.42360       79.47812       26.37041
C         40.11782       79.86958       25.07004
O         41.27456       79.57277       24.87915
C         39.50854       80.66992       27.34120
C         40.95491       81.00595       27.76455
C         40.93504       82.04319       28.84004
O         41.32289       83.17601       28.60950
O         40.49083       81.72287       30.07112
H         40.18162       78.38109       28.05257
H         38.35175       79.31577       26.12512
H         38.90590       80.41130       28.23814
H         39.06021       81.57198       26.87136
H         41.52008       81.37304       26.88156
H         41.50327       80.13026       28.16621
N         39.48428       80.68153       24.17906
C         40.11324       81.13598       22.95032
H         41.14627       80.74547       22.81943
H         39.51003       80.79476       22.08439
H         40.16399       82.24463       22.94543
H         38.52260       80.99352       24.37664
Ca        45.45862       79.02595       30.11114
O         45.63227       80.09280       32.97984
H         46.52968       80.33857       33.31739
H         45.00461       80.63929       33.51537
O         48.24052       79.98438       29.87049
H         48.63791       80.06693       30.77319
H         48.59461       79.12945       29.51751
O         44.69708       76.44286       32.13999
H         45.32839       76.75692       32.83268
H         43.91055       76.13092       32.65295
O         45.08281       81.75742       29.98903
H         45.46265       82.23283       30.76808
H         45.86436       81.59619       29.40428
O         45.85958       76.47920       29.16387
H         45.97919       75.82137       28.43676
H         46.69655       76.45180       29.68352
O         47.43238       77.89677       31.94646
H         47.67948       78.10431       32.88130
H         48.15251       77.30215       31.62424
O         43.10506       79.26563       31.64528
H         42.49962       79.99252       31.93032
H         42.54345       78.45621       31.66885

Ca 1.70



