%chk=loop2.cluster118.chk
%nprocshared=48
%mem=10GB
%nosave
#b3lyp/svp scf=(tight,noincore) Test 
#IOP(5/87=12) Density=Current Pop=(MK,readradii) iop(6/33=2) iop(6/42=6)

loop2.cluster118 

   -2  1 
175

C         59.16103       53.21091       16.82806
C         60.11367       53.39144       15.68434
O         61.13876       54.03848       15.83539
H         58.19313       52.78579       16.47470
H         59.60213       52.47533       17.54034
H         58.98404       54.16624       17.34341
N         59.87388       52.70031       14.54554
C         60.85260       52.42821       13.50951
C         61.17061       53.56656       12.57203
O         60.33929       54.42966       12.33010
C         60.26124       51.26695       12.70896
C         61.16461       50.71396       11.69678
O         62.51006       50.55833       11.93611
O         60.65168       50.23906       10.69618
H         58.99642       52.16285       14.50879
H         61.80034       52.06939       13.96384
H         59.31255       51.61656       12.22527
H         59.99955       50.42777       13.38312
N         62.35134       53.51664       11.89399
C         62.70520       54.39743       10.80132
C         63.49757       53.70404        9.67232
O         63.94710       54.39668        8.77319
C         63.40465       55.61764       11.37658
H         63.03115       52.80429       12.16713
H         61.79532       54.76351       10.30395
H         63.76371       56.24513       10.53480
H         62.66037       56.19343       11.96982
H         64.23218       55.33622       12.06118
N         63.65919       52.34887        9.61329
C         64.44940       51.66843        8.58503
C         63.96596       50.27187        8.15813
O         64.60622       49.67729        7.30157
C         65.93583       51.59515        8.99953
C         66.20376       51.24798       10.42977
O         65.45379       50.32982       11.05170
O         67.20562       51.67983       10.97734
H         63.27970       51.79040       10.35161
H         64.38445       52.24299        7.64487
H         66.45814       52.53812        8.74691
H         66.44336       50.82280        8.40100
N         62.83722       49.70589        8.64377
C         62.34635       48.41741        8.19953
C         63.09738       47.22303        8.76440
O         62.68649       46.10852        8.47512
H         62.25584       50.24444        9.25899
H         62.36699       48.40469        7.08582
H         61.28846       48.31502        8.51753
N         64.20587       47.35866        9.56036
C         65.05701       46.22156        9.94599
C         64.47236       45.26135       10.98032
O         65.19152       44.40482       11.48422
C         66.44348       46.73015       10.33756
C         66.56963       47.39334       11.64325
N         67.76139       47.88536       11.96637
O         65.64431       47.46069       12.43380
H         64.53942       48.30529        9.78521
H         65.25499       45.62369        9.03533
H         66.79396       47.45063        9.57919
H         67.16874       45.88594       10.36872
H         68.52709       47.93664       11.27648
H         67.89895       48.15601       12.91940
N         63.14867       45.32271       11.29207
C         62.43766       44.37551       12.13109
C         62.80627       44.41310       13.59755
O         62.32593       43.57949       14.35498
H         62.58010       46.03732       10.84771
H         62.59902       43.35632       11.72703
H         61.36199       44.63187       12.04560
N         63.68664       45.34367       14.04914
C         64.23001       45.41186       15.39181
C         64.30044       46.81813       15.88863
O         64.42828       47.74803       15.10376
C         65.69537       44.89413       15.38267
C         65.68851       43.38437       15.42052
O         66.41347       45.29883       14.24366
H         64.05688       46.00919       13.37802
H         63.61346       44.84745       16.12673
H         66.23751       45.23999       16.29489
H         66.44503       46.28410       14.24754
H         65.31315       43.09719       16.42252
H         65.02031       42.97707       14.63662
H         66.71118       42.98007       15.26455
N         64.41438       47.01381       17.22952
C         64.76793       48.29705       17.78189
C         66.27297       48.44896       17.74309
O         67.00679       47.69696       18.37611
C         64.18586       48.56548       19.20166
C         62.72911       48.02226       19.28859
C         64.21264       50.08306       19.45674
C         61.99771       48.12202       20.63160
H         64.34581       46.20147       17.85477
H         64.28380       49.06103       17.14125
H         64.82301       48.06096       19.96662
H         62.76907       46.93756       19.10941
H         62.10929       48.48607       18.49300
H         63.61206       50.62009       18.69440
H         63.79340       50.31740       20.44854
H         65.23583       50.49151       19.39452
H         61.67149       49.14927       20.88034
H         61.06494       47.51588       20.56133
H         62.62282       47.70439       21.44918
N         66.77913       49.44595       16.99472
C         68.16160       49.86572       17.01040
C         68.43387       50.65549       18.26752
O         67.49980       51.09889       18.91541
C         68.37917       50.79321       15.82424
C         67.95174       50.13811       14.54865
O         66.61689       50.07915       14.16386
O         68.84216       49.82240       13.78339
H         66.11697       49.98963       16.43824
H         68.85879       49.00775       16.88738
H         69.44493       51.11225       15.76446
H         67.80665       51.70726       15.93151
N         69.70898       50.89905       18.65353
C         70.03378       51.74334       19.77794
C         69.79440       53.20166       19.46422
O         69.12483       53.84173       20.26646
C         71.47959       51.47142       20.25063
C         71.78809       52.15516       21.53218
C         72.92448       52.96245       21.63268
C         70.96037       51.95885       22.64894
C         73.21994       53.58724       22.83946
C         71.25697       52.58298       23.85200
C         72.37720       53.40920       23.94775
H         70.47424       50.43557       18.15254
H         69.34354       51.47297       20.60602
H         72.22181       51.76088       19.48518
H         71.62247       50.39338       20.46603
H         73.58247       53.09748       20.77877
H         70.08260       51.32896       22.58557
H         74.10211       54.20574       22.90366
H         70.61649       52.42527       24.70876
H         72.58395       53.90513       24.88339
N         70.29533       53.84654       18.35490
C         70.08788       55.26309       18.19737
C         68.65602       55.56893       17.85408
O         68.22390       56.70476       17.98225
C         71.11045       55.66674       17.14822
C         72.10967       54.49913       17.17842
C         71.16365       53.32627       17.32744
H         70.36130       55.72417       19.16444
H         70.68036       55.63955       16.12097
H         71.51272       56.66385       17.40531
H         72.75188       54.45004       16.27665
H         72.73273       54.54519       18.10076
H         70.58350       53.26234       16.37044
H         71.64424       52.35333       17.50057
N         67.84617       54.55099       17.45919
C         66.40684       54.65211       17.36684
C         65.80146       54.79104       18.74845
O         65.02084       55.70192       18.97506
C         65.89039       53.39294       16.67271
C         64.48520       53.53563       16.13952
C         64.24265       52.42126       15.19066
O         64.48101       52.56015       14.00100
O         64.03266       51.20391       15.68841
H         68.27772       53.64762       17.21451
H         66.17125       55.52322       16.73068
H         65.96021       52.48982       17.32621
H         66.53257       53.29191       15.77755
H         64.41624       54.49300       15.58739
H         63.76497       53.48583       16.98201
N         66.18609       53.94270       19.74335
C         65.75289       54.07342       21.11547
H         64.69701       53.75772       21.23425
H         66.39193       53.42500       21.75768
H         65.88559       55.12112       21.45306
H         66.88544       53.22852       19.53543
Ca        64.30530       49.93289       13.40371
O         61.93019       49.43173       15.15348
H         62.05113       50.25596       15.67088
H         61.02334       49.18153       15.43858
O         62.39346       47.99460       12.50195
H         61.98545       48.43895       11.73001
H         61.60252       47.60819       12.94016

Ca 1.70



