%chk=loop4.cluster7.chk
%nprocshared=48
%mem=10GB
%nosave
#b3lyp/svp scf=(tight,noincore) Test 
#IOP(5/87=12) Density=Current Pop=(MK,readradii) iop(6/33=2) iop(6/42=6)

loop4.cluster7 

   -3  1 
C         69.14206       53.24132       42.94456
C         68.48234       53.56976       44.24651
O         67.89524       54.63305       44.39177
H         70.20187       52.97963       43.15223
H         68.64570       52.36082       42.48212
H         69.11139       54.09977       42.24488
N         68.55654       52.66729       45.25509
C         67.99747       52.88366       46.57542
C         68.77522       53.97670       47.32746
O         69.96808       53.85105       47.55528
C         68.04235       51.54461       47.32717
C         67.47980       51.59117       48.70315
O         66.82217       52.69116       49.07963
O         68.00731       50.90462       49.55349
H         69.03516       51.77412       45.06503
H         66.91708       53.15692       46.46628
H         69.10044       51.21974       47.38194
H         67.46067       50.79059       46.75521
N         68.11365       55.09103       47.71155
C         68.65815       56.25788       48.40490
C         68.87201       56.02871       49.89460
O         69.72520       56.69028       50.47199
C         67.64563       57.43829       48.16379
C         67.67861       57.75543       46.63955
C         67.90797       58.69015       49.01732
C         66.81547       58.91890       46.17737
H         67.15621       55.14726       47.39760
H         69.63227       56.55018       47.95724
H         66.62185       57.10979       48.46094
H         67.34650       56.86387       46.06841
H         68.72424       57.97713       46.33655
H         68.88740       59.14274       48.77437
H         67.09534       59.43164       48.85485
H         67.85920       58.44667       50.09977
H         65.75985       58.78427       46.48574
H         67.21485       59.87164       46.57917
H         66.86665       58.96789       45.06797
N         67.99518       55.27357       50.60772
C         67.94914       55.27182       52.06583
C         68.03173       53.86868       52.67157
O         67.70345       53.70328       53.83909
C         66.76396       56.15324       52.53215
C         65.39297       55.80185       52.02758
O         64.44591       56.49795       52.34611
O         65.20149       54.78954       51.17582
H         67.26904       54.76881       50.09777
H         68.83320       55.79865       52.49179
H         66.96602       57.18438       52.16085
H         66.73743       56.19309       53.63941
N         68.70682       52.88304       52.00558
C         69.23802       51.69185       52.66412
C         68.30714       50.50931       52.85956
O         68.76993       49.49328       53.35804
H         69.06565       53.09093       51.06368
H         69.66857       51.98241       53.64802
H         70.08078       51.32540       52.04223
N         66.99139       50.55899       52.52944
C         66.06132       49.46523       52.85923
C         66.07840       48.26221       51.90318
O         65.38121       47.29629       52.18284
C         64.62679       50.03234       53.02648
C         64.14033       50.88315       51.89481
O         63.17313       51.79312       52.10780
O         64.71950       50.87190       50.83305
H         66.62634       51.45109       52.17025
H         66.32781       49.07577       53.86705
H         64.65433       50.70138       53.90840
H         63.88526       49.22961       53.22891
N         66.83775       48.23524       50.76989
C         66.75069       47.16349       49.77998
C         65.56705       47.33740       48.83427
O         65.29488       46.44007       48.05051
H         67.45516       49.01503       50.57154
H         66.68716       46.18371       50.30021
H         67.67338       47.15283       49.16088
N         64.83266       48.48415       48.84916
C         63.61925       48.71192       48.07907
C         63.79934       49.92148       47.18541
O         64.17159       50.97530       47.68652
C         62.43487       49.03006       49.02706
C         62.24129       48.01893       50.16842
C         61.06157       48.36817       51.05217
N         60.78043       47.60755       52.13439
O         60.35997       49.33827       50.79992
H         65.14335       49.23515       49.45132
H         63.35041       47.81441       47.48241
H         61.50723       49.07856       48.41291
H         62.58322       50.02658       49.49909
H         63.15078       48.01957       50.80602
H         62.09512       47.00095       49.75172
H         61.36604       46.79291       52.36788
H         59.97915       47.84007       52.74052
N         63.46436       49.86847       45.86537
C         63.47038       51.05532       45.01879
C         62.02035       51.35832       44.67616
O         61.43704       50.66074       43.85680
C         64.34337       50.83365       43.75739
C         64.43368       52.11227       42.90884
C         65.76726       50.38718       44.12303
H         63.11479       48.98272       45.47097
H         63.89506       51.91820       45.56874
H         63.87527       50.02115       43.15909
H         64.99272       51.90818       41.97130
H         63.42806       52.49590       42.64002
H         64.97358       52.90361       43.47268
H         66.32682       50.12387       43.20029
H         66.30637       51.20149       44.64760
H         65.75545       49.49073       44.77744
N         61.33798       52.31398       45.37284
C         59.91943       52.56622       45.17830
C         59.68946       53.34745       43.91045
O         60.64074       53.66100       43.22096
C         59.25526       53.23053       46.42417
C         59.39530       54.72793       46.61938
N         60.58468       55.30017       46.88533
O         58.39340       55.42585       46.58541
H         61.81065       52.78767       46.13344
H         59.41891       51.57758       45.09682
H         59.58609       52.70043       47.34231
H         58.16460       53.04398       46.33218
H         61.42387       54.73347       46.95610
H         60.65991       56.31630       47.03793
N         58.43406       53.70408       43.54894
C         58.13247       54.48600       42.35558
C         58.80320       55.85150       42.38351
O         59.42118       56.25144       41.40782
C         56.60919       54.66474       42.28282
C         56.19594       55.42184       41.05650
C         56.55570       54.96103       39.77848
C         55.44584       56.59777       41.18534
C         56.16270       55.66892       38.64398
C         55.03951       57.29422       40.04923
C         55.39149       56.82819       38.77388
O         54.98248       57.48227       37.67066
H         57.65478       53.40725       44.15496
H         58.47731       53.92340       41.46263
H         56.25576       55.18922       43.20118
H         56.12569       53.66478       42.26868
H         57.14119       54.05780       39.66000
H         55.16630       56.96654       42.16500
H         56.44819       55.30891       37.66393
H         54.44837       58.19285       40.16099
H         54.39627       58.24955       37.73015
N         58.70081       56.61323       43.49759
C         59.31744       57.92552       43.67687
C         60.83396       57.86370       43.44108
O         61.35180       58.67099       42.68286
C         58.92424       58.39715       45.09382
C         59.19346       59.86090       45.41781
C         58.56667       60.17852       46.75154
O         57.65631       60.98913       46.82335
O         58.97132       59.53192       47.86243
H         58.15387       56.21990       44.27526
H         58.86718       58.63861       42.94888
H         59.40291       57.74650       45.84950
H         57.81950       58.26963       45.17790
H         58.71977       60.49353       44.63572
H         60.28279       60.06818       45.44562
N         61.58916       56.87502       44.00569
C         63.01734       56.66770       43.71179
C         63.25386       56.34215       42.23917
O         64.25893       56.77119       41.69048
C         63.58939       55.51631       44.58397
C         63.83701       55.98194       46.02813
C         64.21422       54.86619       46.96006
O         65.08347       55.10323       47.93935
O         63.56156       53.84857       47.01115
H         61.11254       56.20045       44.61691
H         63.60145       57.58382       43.95038
H         64.56984       55.16927       44.19349
H         62.88325       54.65703       44.55212
H         62.94314       56.48728       46.43523
H         64.66089       56.72785       46.03406
N         62.36400       55.59021       41.53976
C         62.51690       55.25813       40.14014
H         63.58354       55.20364       39.84064
H         62.05869       54.26158       39.95440
H         61.96712       55.99888       39.52275
H         61.50190       55.31142       41.99534
Ca        64.74982       53.15143       49.76106
O         61.66342       53.08214       49.89228
H         60.97078       52.38153       49.79863
H         61.15429       53.91565       50.05336
O         62.97241       55.81401       49.47127
H         63.46993       56.52983       49.00440
H         63.07512       56.04278       50.42291

Ca 1.70



