%chk=loop2.cluster104.chk
%nprocshared=48
%mem=10GB
%nosave
#b3lyp/svp scf=(tight,noincore) Test 
#IOP(5/87=12) Density=Current Pop=(MK,readradii) iop(6/33=2) iop(6/42=6)

loop2.cluster104 

   -2  1 
C         61.07311       29.51461       10.91285
C         61.24249       30.11453        9.54982
O         60.58317       29.69795        8.61524
H         60.58745       30.22982       11.60311
H         60.50732       28.55951       10.86213
H         62.08561       29.26473       11.30541
N         62.20610       31.04873        9.35534
C         62.69701       31.44183        8.03434
C         63.24247       30.20658        7.31923
O         62.93870       29.99890        6.15170
C         63.82662       32.46727        8.24385
C         64.46651       32.93314        6.96991
O         63.80151       33.49199        6.11298
O         65.78927       32.75976        6.78422
H         62.70333       31.39909       10.18835
H         61.88811       31.91778        7.42977
H         64.60987       32.01244        8.88971
H         63.40677       33.34884        8.77422
N         63.98383       29.29294        8.02447
C         64.49760       28.02523        7.49896
C         63.41890       27.04056        6.99865
O         63.76928       25.95255        6.56388
C         65.62546       28.29296        6.49853
H         64.18204       29.49555        9.01479
H         64.99090       27.49886        8.34545
H         65.27905       28.84299        5.60239
H         66.40995       28.89948        7.00783
H         66.10052       27.33642        6.19305
N         62.08779       27.33663        7.09005
C         60.97539       26.45049        6.76067
C         60.89248       26.05169        5.29550
O         60.04780       25.23379        4.96082
C         60.92844       25.21356        7.71012
C         59.52587       25.00773        8.23993
O         59.06298       25.87055        9.16281
O         58.72942       24.33872        7.60424
H         61.82306       28.23414        7.46945
H         60.05885       27.04402        6.95293
H         61.58382       25.36964        8.59320
H         61.29337       24.30316        7.18868
N         61.72110       26.60009        4.36012
C         61.75865       26.13284        2.98398
C         61.30469       27.16735        1.97892
O         61.40325       26.89029        0.78977
H         62.36665       27.35767        4.62170
H         61.15209       25.21506        2.84132
H         62.81552       25.86447        2.76363
N         60.82822       28.39127        2.35586
C         60.52389       29.43835        1.37833
C         60.62522       30.83780        2.00084
O         61.17149       30.95572        3.09211
C         59.21425       29.16288        0.59178
C         57.95199       29.39952        1.37810
N         57.56995       28.54963        2.35694
O         57.24968       30.36301        1.10670
H         60.76072       28.61159        3.36140
H         61.33835       29.43070        0.62087
H         59.19995       28.13968        0.15888
H         59.20718       29.84823       -0.28073
H         58.12807       27.71312        2.57544
H         56.69684       28.72243        2.87808
N         60.15697       31.95282        1.34929
C         60.33562       33.32008        1.84451
C         59.97445       33.42268        3.30018
O         60.85752       33.68602        4.10635
H         59.65656       31.83953        0.45807
H         59.73935       34.02524        1.22971
H         61.41006       33.58520        1.73932
N         58.73615       33.05376        3.72625
C         58.60966       32.40268        5.02498
C         57.85931       33.18470        6.08699
O         57.18149       34.15911        5.78774
C         57.94785       31.01804        4.75411
C         58.43570       29.91110        5.66111
O         56.54370       31.09357        4.81347
H         58.02739       32.84168        3.00564
H         59.63406       32.20702        5.41627
H         58.26373       30.65552        3.75584
H         56.24122       31.62448        4.03316
H         58.17889       30.14273        6.69793
H         57.95256       28.95500        5.36158
H         59.53612       29.78464        5.56596
N         57.92288       32.74346        7.37236
C         57.05094       33.15478        8.46209
C         56.37941       31.89391        8.98925
O         56.95241       30.81728        8.91149
C         57.88232       33.87815        9.56147
C         58.21060       35.31347        9.07964
C         57.18278       33.90275       10.93675
C         59.15489       36.06030       10.01933
H         58.60881       32.00633        7.58787
H         56.24559       33.83966        8.10324
H         58.82592       33.30575        9.70253
H         57.27476       35.90951        8.96261
H         58.70210       35.25355        8.08658
H         57.82989       34.37472       11.70190
H         56.21252       34.43764       10.88988
H         57.01783       32.86795       11.30275
H         58.65446       36.30809       10.97829
H         60.05449       35.44118       10.21743
H         59.46951       37.01432        9.54861
N         55.14808       31.96214        9.54234
C         54.40525       30.79949       10.02949
C         52.98520       31.21320       10.42691
O         52.58206       32.34890       10.20550
C         55.14217       30.05745       11.20558
C         55.91112       28.81477       10.81059
O         57.03407       28.63490       11.25112
O         55.34928       27.84283       10.06565
H         54.71857       32.89978        9.60115
H         54.24819       30.07337        9.19889
H         54.41949       29.67078       11.93869
H         55.78924       30.75202       11.77846
N         52.15105       30.29276       10.96596
C         50.73795       30.50386       11.27888
C         50.24173       29.15386       11.74889
O         49.52857       28.53592       10.96931
C         50.45644       31.71298       12.19905
C         48.98956       31.93814       12.48153
C         48.06791       32.13869       11.43418
C         48.53792       31.98894       13.80985
C         46.71831       32.37310       11.72063
C         47.19099       32.22900       14.08935
C         46.28130       32.41899       13.04691
H         52.53653       29.34309       11.10164
H         50.23124       30.72988       10.31298
H         50.81055       32.64084       11.70768
H         51.01213       31.61180       13.13785
H         48.38987       32.11847       10.40084
H         49.23221       31.85494       14.62879
H         46.01121       32.52510       10.91479
H         46.85436       32.27253       15.11648
H         45.23864       32.60688       13.26785
N         50.88320       28.47966       12.77140
C         50.81471       28.94388       14.16360
C         51.96179       29.76052       14.74894
O         51.68925       30.71098       15.46943
C         50.74971       27.62360       14.96487
C         50.21236       26.61871       13.96663
C         50.94170       27.03464       12.71882
H         49.84211       29.46392       14.31018
H         51.77903       27.27400       15.20949
H         50.17193       27.69178       15.91109
H         50.37696       25.55555       14.24224
H         49.13130       26.80888       13.79937
H         52.01876       26.74556       12.76217
H         50.51396       26.56955       11.80567
N         53.26410       29.37540       14.58529
C         54.38667       29.97963       15.32681
C         54.55113       31.48732       15.14276
O         55.35457       32.06503       15.86343
C         55.70744       29.25189       14.96707
C         55.76488       27.82106       15.54091
C         56.25592       27.82483       16.96442
O         55.46858       27.38299       17.96196
O         57.39225       28.19997       17.21322
H         53.45511       28.57703       13.96099
H         54.19179       29.84196       16.41472
H         56.60850       29.80453       15.31669
H         55.77125       29.21652       13.86224
H         56.48811       27.21288       14.95854
H         54.77079       27.33007       15.46264
N         53.78496       32.20443       14.27285
C         53.80440       33.65249       14.22559
H         52.85019       34.02911       14.65475
H         54.64010       34.09246       14.80932
H         53.87959       33.99391       13.17405
H         53.11819       31.72521       13.66330
Ca        56.84789       26.34096        9.27871
O         54.05214       25.34836       10.06428
H         53.36141       24.69559       10.33558
H         53.54552       26.18423        9.90895
O         57.94016       28.09060        7.75309
H         58.69606       28.25992        8.36336
H         57.19371       28.59564        8.15530
O         56.23643       23.15428        9.16029
H         56.06141       22.83371       10.08060
H         56.79636       22.44658        8.75287
O         55.58621       25.88208        6.78503
H         55.47580       26.59385        6.10626
H         55.57731       25.03576        6.27220
O         57.32574       25.11015       11.77849
H         58.08046       24.47565       11.86530
H         56.80149       25.00002       12.61023

Ca 1.70



