%chk=loop3.cluster112.chk
%nprocshared=48
%mem=10GB
%nosave
#b3lyp/svp scf=(tight,noincore) Test 
#IOP(5/87=12) Density=Current Pop=(MK,readradii) iop(6/33=2) iop(6/42=6)

loop3.cluster112 

   0  1 
C        111.96072       41.60283       14.47708
C        112.97272       42.67350       14.74592
O        112.62335       43.83919       14.71839
H        110.99136       42.04778       14.16245
H        112.32238       40.92736       13.67495
H        111.79921       41.02127       15.40829
N        114.26763       42.34216       15.00253
C        115.29347       43.33299       15.33122
C        116.29682       43.51399       14.21235
O        116.25127       42.80652       13.21644
C        116.03091       42.88797       16.62679
C        116.72888       41.54283       16.53670
O        116.99890       41.03895       15.45668
O        117.08221       40.90310       17.66655
H        114.53103       41.34710       14.96090
H        114.83055       44.32997       15.50538
H        115.28628       42.83865       17.44629
H        116.79648       43.63019       16.94040
N        117.28852       44.43510       14.37148
C        118.45422       44.50581       13.49558
C        118.12972       44.94500       12.06967
O        118.91652       44.69005       11.16641
C        119.49671       45.41880       14.16650
C        120.86244       45.33351       13.49945
C        121.88777       46.20813       14.22024
C        123.24067       46.10475       13.50686
N        124.13754       47.18006       13.91983
H        117.26737       45.02817       15.21490
H        118.86764       43.47419       13.46073
H        119.62154       45.08277       15.22098
H        119.12241       46.46845       14.18133
H        120.77515       45.69649       12.45506
H        121.20294       44.27552       13.49822
H        122.00392       45.90496       15.28732
H        121.52185       47.25652       14.19107
H        123.09290       46.18856       12.40793
H        123.69415       45.10966       13.72065
H        125.05959       47.05181       13.44453
H        123.73364       48.09617       13.61330
H        124.27102       47.18041       14.95599
N        116.95942       45.57016       11.79327
C        116.49668       45.91505       10.45253
C        116.08370       47.38303       10.35681
O        115.45387       47.76864        9.38765
C        115.34527       44.94499       10.10906
C        114.23180       44.87695       11.12257
O        113.43654       43.95660       11.06826
O        114.10738       45.82386       12.07637
H        116.33719       45.77587       12.58537
H        117.27406       45.74508        9.67416
H        115.80699       43.93547       10.05710
H        114.91264       45.16357        9.10910
N        116.44223       48.25764       11.34091
C        115.97123       49.63611       11.36425
C        116.55917       50.39816       12.55141
O        117.46448       49.90177       13.19720
H        117.03886       47.92559       12.10188
H        114.86743       49.59005       11.47270
H        116.22658       50.16798       10.42259
N        116.06174       51.60367       12.94864
C        114.93105       52.27299       12.32702
C        113.69234       52.04041       13.17896
O        113.83416       51.54683       14.29275
C        115.27828       53.76994       12.17249
C        116.35105       54.01890       11.14005
N        116.74121       55.28462       10.87350
O        116.85302       53.08968       10.52357
H        116.45517       52.01714       13.81252
H        114.71860       51.84471       11.33537
H        115.60078       54.17580       13.15777
H        114.40869       54.36231       11.86313
H        116.31703       56.07811       11.37576
H        117.45741       55.46739       10.15588
N        112.42445       52.31398       12.75268
C        112.04130       52.87029       11.45858
C        112.23219       51.98031       10.24989
O        112.75869       50.88372       10.34220
H        111.65509       52.13230       13.41595
H        112.50772       53.84687       11.27586
H        110.94742       53.05622       11.50304
N        111.71869       52.41113        9.06404
C        111.62480       51.58794        7.86648
C        111.85126       52.41079        6.61252
O        111.25485       53.46452        6.44841
C        110.24744       50.88923        7.83048
C        109.10120       51.79078        8.21433
C        108.58212       51.71320        9.51809
C        108.56138       52.71884        7.31138
C        107.54883       52.55783        9.91743
C        107.52024       53.56087        7.71202
C        107.01229       53.48265        9.01832
O        106.00912       54.28932        9.41616
H        111.20511       53.30494        9.06832
H        112.36840       50.76243        7.88725
H        110.30597       50.08926        8.59774
H        110.05645       50.37198        6.86360
H        108.99492       51.00926       10.23140
H        108.93739       52.78667        6.29994
H        107.16812       52.49435       10.92869
H        107.11009       54.27410        7.00908
H        105.60590       54.93126        8.81541
N        112.69047       51.93942        5.65474
C        112.85053       52.53854        4.34157
C        112.58117       51.51261        3.24966
O        113.09046       51.66888        2.14670
C        114.25431       53.19233        4.21361
C        114.22109       54.57343        4.90210
C        115.37912       52.28626        4.77171
C        115.38013       55.46825        4.47910
H        113.21330       51.07945        5.83792
H        112.08574       53.32437        4.15379
H        114.44050       53.39061        3.13640
H        114.16870       54.46506        6.00682
H        113.30962       55.11655        4.56749
H        116.37825       52.74019        4.62756
H        115.25074       52.12609        5.86641
H        115.37069       51.29261        4.27494
H        115.36771       55.59115        3.37268
H        115.24428       56.47069        4.93527
H        116.35578       55.05214        4.79350
N        111.67693       50.50685        3.43841
C        111.34155       49.58780        2.35256
C        112.44831       48.55568        2.15400
O        112.48778       47.90374        1.11915
C        109.95489       48.90810        2.54578
O        109.16826       49.54613        3.52043
H        111.20582       50.42064        4.34909
H        111.24679       50.20886        1.43516
H        110.04133       47.81944        2.76891
H        109.39414       48.95788        1.58777
H        109.21527       48.98528        4.34063
N        113.33927       48.31109        3.16407
C        114.36114       47.27150        3.14792
C        113.78591       45.91668        3.61001
O        114.47428       45.15772        4.27981
C        115.53766       47.78130        4.01478
H        113.24915       48.85206        4.02533
H        114.75007       47.13571        2.11623
H        115.18908       48.05677        5.03563
H        116.36005       47.04674        4.11551
H        115.95050       48.70882        3.55619
N        112.51344       45.55594        3.24656
C        111.83467       44.30204        3.55422
C        111.74582       44.07186        5.04354
O        112.15950       43.03522        5.54518
C        112.40967       43.14017        2.74861
H        111.94887       46.22468        2.72521
H        110.78662       44.41477        3.19439
H        112.42306       43.42514        1.67335
H        113.43489       42.87683        3.07303
H        111.74112       42.25781        2.85482
N        111.19803       45.05088        5.80763
C        111.07746       44.99373        7.25317
C        109.63087       45.15800        7.70467
O        109.39415       45.18226        8.90019
C        112.00699       46.03860        7.91994
C        111.62934       47.52451        7.81745
C        111.90546       48.13311        6.49053
O        111.08981       48.08149        5.59042
O        113.02919       48.84288        6.33214
H        110.85706       45.88069        5.32237
H        111.43577       44.00884        7.62501
H        113.04850       45.89986        7.54937
H        112.02049       45.81097        9.00653
H        112.32123       48.05355        8.50143
H        110.60337       47.74835        8.17632
N        108.59662       45.24359        6.81982
C        107.23224       45.39475        7.27929
H        106.53155       45.29013        6.42557
H        106.99323       44.60890        8.02799
H        107.09471       46.39635        7.74136
H        108.76083       45.16790        5.80684
Ca       112.34501       46.13846       13.46119
O        114.17050       47.49224       14.87921
H        115.14694       47.37724       14.98169
H        113.91670       48.20649       15.51457
O        110.99285       48.79978       13.97063
H        110.37432       48.75855       14.74173
H        110.95754       49.74410       13.67882
O        112.48460       47.82942       11.25491
H        112.08658       48.72551       11.15661
H        113.16056       47.76445       10.53759
O        110.92528       44.96950       11.58210
H        111.06319       44.09663       11.14189
H        110.29038       45.45706       11.01046
O        109.68248       45.86193       14.60799
H        109.11984       45.13251       14.96813
H        109.40403       46.66249       15.11798

Ca 1.70



