%chk=loop3.cluster47.chk
%nprocshared=48
%mem=10GB
%nosave
#b3lyp/svp scf=(tight,noincore) Test 
#IOP(5/87=12) Density=Current Pop=(MK,readradii) iop(6/33=2) iop(6/42=6)

loop3.cluster47 

   0  1 
C         58.24476       48.57367       42.35798
C         57.49951       48.69358       43.64811
O         57.92373       48.13170       44.63580
H         59.18992       48.00891       42.50294
H         57.61214       48.03108       41.62371
H         58.47944       49.58552       41.96871
N         56.36729       49.43489       43.70859
C         55.52796       49.54579       44.89864
C         54.63596       48.30589       44.94531
O         53.48784       48.35677       44.52936
C         54.76992       50.88147       44.77658
C         53.75579       51.22298       45.81614
O         52.87772       52.00742       45.51019
O         53.66006       50.58397       46.98928
H         56.07276       49.92724       42.85053
H         56.13264       49.62479       45.82814
H         54.21387       50.85193       43.81688
H         55.49150       51.72551       44.72604
N         55.16080       47.12436       45.37862
C         54.46339       45.83793       45.34886
C         53.23036       45.78047       46.24037
O         52.45073       44.84939       46.09094
C         55.43922       44.72108       45.82466
C         56.66930       44.52193       44.91669
C         56.30098       43.87838       43.57611
C         57.52819       43.79132       42.66053
N         57.12729       43.51071       41.28324
H         56.12495       47.13656       45.71731
H         54.12756       45.65472       44.30648
H         54.92365       43.74292       45.93168
H         55.80254       45.01838       46.83487
H         57.40672       43.87193       45.43420
H         57.16607       45.49627       44.72951
H         55.54126       44.50744       43.07705
H         55.87004       42.86241       43.73437
H         58.22958       43.01033       43.03389
H         58.06048       44.76754       42.66552
H         56.50008       44.27786       40.94416
H         57.97815       43.49536       40.67664
H         56.62946       42.59431       41.21855
N         53.00632       46.71326       47.20884
C         51.85928       46.66695       48.11955
C         50.88691       47.82097       47.86975
O         49.85075       47.86729       48.51853
C         52.36042       46.61656       49.59201
C         53.29336       47.74090       49.96463
O         54.26825       47.51981       50.66314
O         53.22770       48.88569       49.28397
H         53.68251       47.47866       47.31937
H         51.26431       45.74248       47.94811
H         52.92919       45.66972       49.71770
H         51.50763       46.59050       50.30163
N         51.13069       48.76216       46.91107
C         50.19928       49.82475       46.57573
C         49.95030       50.80413       47.70216
O         48.88555       51.40331       47.72509
H         51.99017       48.71031       46.35880
H         49.23732       49.38485       46.23438
H         50.60775       50.39965       45.71533
N         50.93112       51.11151       48.60068
C         50.76024       52.11359       49.65013
C         51.39573       53.44261       49.26625
O         51.42306       54.35298       50.08412
C         51.21448       51.54802       51.01415
C         52.68998       51.31422       51.21725
N         53.11379       50.73727       52.36518
O         53.50219       51.64276       50.36723
H         51.84700       50.66862       48.50383
H         49.68162       52.34147       49.77744
H         50.69238       50.57728       51.15857
H         50.88657       52.24115       51.81683
H         52.43626       50.45992       53.09079
H         54.11286       50.55413       52.52259
N         51.82543       53.65766       47.98984
C         52.20759       54.95879       47.48793
C         53.68295       55.22437       47.55032
O         54.09365       56.25823       47.04747
H         51.69597       52.91817       47.29474
H         51.63428       55.76845       47.98712
H         51.94107       54.99158       46.40806
N         54.55012       54.35539       48.15064
C         55.98332       54.61387       48.15204
C         56.76288       53.40340       47.71410
O         56.21890       52.31806       47.61392
C         56.41733       55.15671       49.52656
C         56.25440       54.19558       50.68166
C         55.20100       54.36168       51.59712
C         57.17949       53.15750       50.88217
C         55.07109       53.49757       52.68895
C         57.05211       52.30746       51.98275
C         55.99815       52.47089       52.88646
O         55.86799       51.64330       53.94406
H         54.19749       53.51977       48.63490
H         56.21880       55.40784       47.41313
H         55.79076       56.05732       49.70610
H         57.47127       55.50903       49.50400
H         54.47817       55.15542       51.46097
H         58.01085       53.02174       50.20458
H         54.25074       53.62642       53.38284
H         57.77281       51.52585       52.14337
H         56.46742       50.89510       54.08126
N         58.08441       53.54814       47.44393
C         58.95166       52.43382       47.11840
C         59.97353       52.35611       48.22785
O         60.67593       53.32424       48.47671
C         59.58925       52.63127       45.72113
C         58.48670       52.58146       44.63126
C         60.65307       51.54212       45.46532
C         58.97846       53.05969       43.26593
H         58.50261       54.48660       47.50493
H         58.39114       51.48097       47.07846
H         60.08012       53.62886       45.70071
H         57.64569       53.25216       44.90739
H         58.08329       51.54762       44.55076
H         61.47400       51.62873       46.20510
H         60.20334       50.52842       45.55200
H         61.12259       51.64291       44.46943
H         58.14561       53.00726       42.53396
H         59.31287       54.11660       43.34397
H         59.81127       52.44069       42.88084
N         60.10654       51.20159       48.93193
C         61.10321       51.02011       49.96720
C         62.33725       50.40055       49.36202
O         62.37093       50.14933       48.16967
C         60.53363       50.11907       51.07883
O         60.24937       48.84557       50.57424
H         59.56700       50.38514       48.64358
H         61.37809       51.99905       50.41549
H         59.60714       50.57332       51.46929
H         61.26445       50.02792       51.90947
H         59.95254       48.29060       51.34080
N         63.41275       50.14956       50.14503
C         64.61064       49.48542       49.65517
C         64.34228       48.00431       49.45962
O         64.70038       47.45461       48.42765
C         65.72707       49.68207       50.67301
H         63.37389       50.43681       51.13367
H         64.96000       49.96465       48.71157
H         66.67862       49.27108       50.27842
H         65.85824       50.77285       50.84672
H         65.47343       49.19403       51.63682
N         63.66392       47.30693       50.41918
C         63.29026       45.89989       50.28592
C         62.51961       45.66066       48.99925
O         62.73469       44.64946       48.34664
C         62.45594       45.47338       51.50303
H         63.34913       47.81803       51.25923
H         64.20576       45.27000       50.26757
H         63.05810       45.60200       52.42933
H         61.53815       46.09459       51.59400
H         62.16163       44.40545       51.42690
N         61.64706       46.59689       48.54524
C         60.98462       46.50804       47.25253
C         61.98435       46.62970       46.11373
O         62.01296       45.75598       45.25844
C         59.88688       47.58115       47.15927
C         58.70551       47.16533       48.06158
C         57.49998       48.04312       47.96573
O         56.38966       47.54935       48.06940
O         57.62549       49.37512       47.96029
H         61.48703       47.43252       49.12038
H         60.47393       45.52555       47.14574
H         59.54982       47.62428       46.11971
H         60.28507       48.58564       47.42249
H         59.02984       47.12483       49.11872
H         58.37372       46.14371       47.77355
N         62.85383       47.67469       46.05206
C         63.84693       47.80677       45.00592
H         64.81680       47.40043       45.36292
H         63.53968       47.28482       44.07540
H         63.98554       48.88170       44.76323
H         62.87341       48.35027       46.81884
Ca        55.04594       49.99769       48.64025
O         56.96414       49.36097       50.92296
H         57.78981       49.04210       50.48737
H         57.12117       49.18933       51.88390

Ca 1.70



