%chk=loop2.cluster54.chk
%nprocshared=48
%mem=10GB
%nosave
#b3lyp/svp scf=(tight,noincore) Test 
#IOP(5/87=12) Density=Current Pop=(MK,readradii) iop(6/33=2) iop(6/42=6)

loop2.cluster54 

   -2  1 
C        108.03096       63.13925       -5.51873
C        106.61816       63.66978       -5.49430
O        105.74311       62.93690       -5.93339
H        108.80068       63.76575       -5.04630
H        108.04820       62.16817       -4.97777
H        108.32936       62.95350       -6.57126
N        106.25326       64.89144       -4.98945
C        107.14683       65.92822       -4.45816
C        106.91513       67.32357       -5.09825
O        106.09069       67.25192       -6.22201
C        106.98533       66.04953       -2.93358
C        105.57791       66.26143       -2.41845
O        104.63415       66.40909       -3.17622
O        105.35952       66.26605       -1.09164
H        105.24885       65.08954       -4.97862
H        108.19849       65.66698       -4.64230
H        107.62084       66.88667       -2.56836
H        107.36231       65.10687       -2.49037
N        108.21471       68.00856       -5.34636
C        108.29532       69.41267       -5.82334
C        107.61507       70.39154       -4.89419
O        108.25894       71.31102       -4.40939
C        107.84398       69.60716       -7.28238
H        108.87521       67.40788       -5.89089
H        109.37421       69.68258       -5.82842
H        108.07077       70.65358       -7.59490
H        108.41947       68.93712       -7.95641
H        106.75892       69.43853       -7.42938
N        106.28857       70.28426       -4.65935
C        105.52623       71.22226       -3.86630
C        104.61798       70.52830       -2.87618
O        104.49100       69.31287       -2.91606
C        104.81912       72.18098       -4.83052
C        103.86682       71.64013       -5.88577
O        103.39989       70.36501       -5.92660
O        103.43302       72.43395       -6.70529
H        105.79454       69.56231       -5.14793
H        106.21847       71.82876       -3.24458
H        105.63895       72.70086       -5.37333
H        104.26853       72.94971       -4.24953
N        103.97899       71.25349       -1.91452
C        103.20133       70.60861       -0.87528
C        101.72799       70.83239       -1.04370
O        101.30828       71.73854       -1.74679
H        104.08226       72.27917       -1.89081
H        103.51852       70.97662        0.12680
H        103.37954       69.51429       -0.86181
N        100.88165       70.01904       -0.36229
C         99.44982       70.23750       -0.27522
C         99.13182       70.52450        1.16439
O         99.78002       70.00713        2.06048
C         98.65298       68.98792       -0.70367
C         98.51780       68.86004       -2.19190
N         97.72743       69.71688       -2.88187
O         99.07034       67.94405       -2.77311
H        101.28391       69.24657        0.18964
H         99.12187       71.11528       -0.87329
H         97.60947       69.03857       -0.32182
H         99.12796       68.08575       -0.25810
H         97.20055       70.45489       -2.39063
H         97.60680       69.61195       -3.90010
N         98.04233       71.27743        1.44054
C         97.60123       71.47269        2.80408
C         96.17779       71.99265        2.85639
O         95.60124       72.30803        1.83110
H         97.49082       71.64433        0.65706
H         98.31545       72.12859        3.34785
H         97.58924       70.48743        3.29992
N         95.50537       72.05338        4.03631
C         96.08245       71.63764        5.30322
C         95.88843       70.12132        5.52173
O         96.39263       69.59477        6.49867
C         95.48771       72.54376        6.41256
C         96.28978       72.48917        7.71876
O         95.49496       73.87284        5.93913
H         94.51434       72.34846        4.01303
H         97.17241       71.85294        5.29021
H         94.43323       72.22629        6.58264
H         95.16752       74.46745        6.66211
H         95.78687       73.12170        8.48172
H         96.37250       71.46413        8.12189
H         97.30638       72.90496        7.54331
N         95.17112       69.36646        4.61976
C         94.88601       67.93328        4.73524
C         94.07795       67.66715        6.00075
O         94.66385       67.66739        7.07299
C         96.15249       67.02668        4.61297
C         96.99411       67.31563        3.34535
C         95.76160       65.53778        4.64876
C         96.23969       67.19511        2.01994
H         94.75543       69.83104        3.80329
H         94.26441       67.67890        3.85902
H         96.82929       67.20488        5.47690
H         97.85576       66.61232        3.32826
H         97.41972       68.33102        3.41245
H         95.36255       65.28208        5.64960
H         94.99253       65.30163        3.88338
H         96.64588       64.88963        4.46749
H         96.95340       67.33880        1.18508
H         95.77824       66.19402        1.90691
H         95.45817       67.97857        1.93951
N         92.72249       67.47802        6.00150
C         91.87257       67.43260        4.81384
C         92.01052       66.07384        4.15478
O         92.43020       65.99711        3.00894
C         90.39954       67.84167        5.12274
C         89.60782       67.19965        6.25099
O         90.16784       66.37742        7.15557
O         88.43534       67.50567        6.38964
H         92.27759       67.36157        6.91938
H         92.19175       68.21431        4.08670
H         89.82263       67.71301        4.18071
H         90.40078       68.92906        5.35653
N         91.71984       64.95235        4.86581
C         91.96898       63.59853        4.40238
C         90.63890       62.84688        4.30860
O         89.64784       63.36629        4.79941
C         92.96570       62.96824        5.41307
C         92.37128       62.71555        6.78777
C         92.40465       63.69094        7.80849
C         91.77858       61.47209        7.05196
C         91.83655       63.41689        9.06127
C         91.22077       61.20304        8.30309
C         91.24564       62.17389        9.30618
H         91.35725       65.05494        5.80863
H         92.43453       63.63404        3.39695
H         93.84235       63.63639        5.51420
H         93.40312       62.02707        5.04473
H         92.86014       64.65922        7.63673
H         91.75148       60.71176        6.28283
H         91.85310       64.16569        9.84441
H         90.76795       60.23922        8.49274
H         90.80799       61.96037       10.27355
N         90.51022       61.62813        3.68750
C         91.56275       60.88610        3.01957
C         91.91295       61.45938        1.65769
O         91.39359       62.49959        1.27053
C         90.93732       59.48781        2.90242
C         89.47702       59.80929        2.65826
C         89.23554       60.93805        3.65554
H         92.48430       60.78405        3.61620
H         91.40550       58.80499        2.16315
H         90.99700       59.00044        3.90279
H         89.40240       60.22599        1.62790
H         88.77021       58.95834        2.74848
H         88.40073       61.57575        3.29303
H         89.02070       60.55693        4.67802
N         92.80292       60.79330        0.87020
C         93.24267       61.26597       -0.43042
C         94.72413       60.89785       -0.67278
O         95.01735       60.35391       -1.72933
C         92.34709       60.58567       -1.50966
C         90.92376       61.14381       -1.66289
C         90.93841       62.54413       -2.21674
O         90.18855       63.50543       -1.64784
O         91.59681       62.80346       -3.21307
H         93.19540       59.90259        1.21420
H         93.17555       62.37422       -0.49766
H         92.29048       59.49713       -1.27543
H         92.80153       60.67118       -2.51892
H         90.33807       61.09079       -0.72069
H         90.40765       60.50353       -2.41014
N         95.74039       61.13019        0.21679
C         95.61231       61.68014        1.55242
H         95.64463       62.78680        1.53609
H         94.75434       61.28509        2.11688
H         96.48503       61.32743        2.14570
H         96.68499       60.81917       -0.05978
Ca       104.08595       68.21795       -5.54311
O        101.13973       67.44538       -6.88780
H        100.19747       67.64588       -7.10992
H        101.25059       66.50157       -7.16016
O        101.08227       69.60757       -4.80404
H        100.94167       69.31402       -3.87121
H        100.49949       70.39988       -4.91164
O        101.79058       66.58245       -3.70654
H        101.91908       66.00649       -2.91220
H        100.81017       66.65313       -3.79955
O        103.88121       68.02007       -8.13464
H        104.14255       68.97477       -8.16125
H        104.36258       67.59361       -8.88278
O        103.30234       65.56350       -6.26617
H        103.90516       65.61153       -7.04958
H        103.06648       64.60704       -6.18648

Ca 1.70



