%chk=loop4.cluster24.chk
%nprocshared=48
%mem=10GB
%nosave
#b3lyp/svp scf=(tight,noincore) Test 
#IOP(5/87=12) Density=Current Pop=(MK,readradii) iop(6/33=2) iop(6/42=6)

loop4.cluster24 

   -3  1 
C         82.74801       20.83098       58.96483
C         83.85542       19.93928       59.45509
O         85.01730       20.24545       59.23607
H         81.83509       20.67895       59.58097
H         83.03482       21.89927       59.06069
H         82.50292       20.59406       57.90878
N         83.54393       18.79523       60.12675
C         84.51163       17.86926       60.71246
C         85.23356       18.53395       61.87164
O         86.45501       18.47228       61.96113
C         85.48856       17.27266       59.67530
C         84.85478       16.69802       58.44147
O         85.57770       16.35342       57.52042
O         83.52009       16.57493       58.29945
H         82.54684       18.56518       60.25260
H         83.92390       17.03197       61.15019
H         86.10663       16.47943       60.15286
H         86.17786       18.07206       59.33574
N         84.50473       19.19408       62.81243
C         85.06897       19.79468       64.01140
C         84.34796       19.17336       65.20392
O         83.12801       19.26944       65.25516
C         84.86098       21.34086       63.99904
C         85.70837       21.98816       62.87212
C         85.28709       21.94823       65.36338
C         85.36292       23.45789       62.59813
H         83.48338       19.26401       62.67769
H         86.15986       19.61650       64.05367
H         83.77985       21.54549       63.83070
H         85.59024       21.45142       61.90659
H         86.77656       21.90597       63.16953
H         85.12381       23.04055       65.41076
H         84.70409       21.52071       66.20419
H         86.36444       21.75022       65.55540
H         86.19152       23.92503       62.02574
H         84.43518       23.52263       61.99103
H         85.21890       24.05707       63.51633
N         84.99628       18.56121       66.23621
C         86.44534       18.40904       66.31483
C         86.89218       17.22511       65.46678
O         87.98010       17.25962       64.90819
C         86.93243       18.25223       67.77220
C         86.41696       19.34818       68.67909
O         87.26823       20.24461       69.21136
O         85.23022       19.40940       68.96109
H         84.42412       18.21048       67.01835
H         86.94042       19.35057       65.99588
H         88.04513       18.30280       67.75525
H         86.63619       17.27160       68.19784
N         86.07946       16.13365       65.33258
C         86.40090       14.97165       64.52223
C         87.61122       14.23208       65.03031
O         87.65999       13.89116       66.20325
H         85.16543       16.12945       65.80919
H         86.52577       15.27076       63.45816
H         85.54547       14.26420       64.57131
N         88.61897       13.92068       64.16991
C         89.81885       13.19225       64.56683
C         91.07071       14.05400       64.42296
O         92.15741       13.55707       64.68819
C         89.92487       11.85052       63.78155
C         89.98413       11.89746       62.26794
O         89.82411       13.04363       61.58556
O         90.13738       10.85824       61.64682
H         88.52669       14.21482       63.18839
H         89.76932       12.91029       65.64139
H         89.04483       11.22249       64.04001
H         90.83085       11.31478       64.14074
N         91.00139       15.36221       64.02043
C         92.18725       16.18216       63.79413
C         92.96331       15.76607       62.54567
O         93.95243       16.40776       62.21797
H         90.08605       15.80270       63.85615
H         92.82870       16.17449       64.70121
H         91.85224       17.23020       63.62764
N         92.51378       14.74163       61.76344
C         93.06634       14.29603       60.49758
C         93.21713       15.44477       59.52986
O         94.31926       15.73852       59.09345
C         94.30720       13.39550       60.64461
C         94.05199       12.22903       61.62437
C         95.04025       11.09891       61.44744
N         94.80272        9.89730       62.02269
O         96.02921       11.24427       60.74335
H         91.66465       14.26778       62.04461
H         92.30955       13.61623       60.04456
H         95.22612       13.94618       60.92939
H         94.45608       12.95754       59.62893
H         93.04629       11.80602       61.41628
H         94.05681       12.59050       62.67827
H         93.95199        9.74166       62.58333
H         95.44947        9.10985       61.86543
N         92.10136       16.12303       59.13476
C         92.16401       17.29017       58.26020
C         91.78209       16.95211       56.82773
O         91.28948       15.86857       56.55544
C         91.27080       18.44247       58.81447
C         89.76240       18.10102       58.78498
C         91.67882       18.82707       60.24225
H         91.18670       15.79752       59.47113
H         93.21489       17.65010       58.21047
H         91.42617       19.33287       58.16679
H         89.16267       18.96603       59.13793
H         89.42792       17.85907       57.75414
H         89.51769       17.23949       59.44027
H         92.76596       19.04437       60.28987
H         91.12372       19.73511       60.56188
H         91.44491       18.00623       60.95426
N         92.01042       17.88296       55.85467
C         91.62672       17.71021       54.45644
C         91.22392       19.04345       53.84246
O         91.68979       20.09011       54.26756
C         92.73463       16.98629       53.63787
C         93.03876       17.61689       52.28984
N         92.51675       17.11915       51.14585
O         93.74119       18.61683       52.24551
H         92.47398       18.75973       56.12732
H         90.69914       17.09295       54.41523
H         92.45935       15.91458       53.52928
H         93.69283       16.98982       54.19993
H         91.88896       16.30398       51.16286
H         92.71880       17.57858       50.24395
N         90.35068       19.04730       52.79804
C         89.90839       20.27553       52.15044
C         88.57466       19.98113       51.48790
O         88.40568       20.19496       50.29186
C         90.98522       20.71256       51.12934
C         90.81819       22.13375       50.66579
C         91.13083       23.17518       51.55096
C         90.40328       22.43795       49.35760
C         91.04436       24.50386       51.13657
C         90.29929       23.77356       48.94912
C         90.62866       24.81003       49.83786
O         90.55522       26.10004       49.45249
H         89.94032       18.14844       52.50120
H         89.73674       21.04480       52.93747
H         90.97444       19.99377       50.27865
H         92.00157       20.64694       51.57280
H         91.46827       22.95065       52.55530
H         90.15701       21.64711       48.65928
H         91.30958       25.29588       51.82458
H         89.97266       24.00324       47.94235
H         90.28202       26.35109       48.55909
N         87.60904       19.35679       52.21244
C         86.40486       18.81821       51.60878
C         85.42868       19.91894       51.18877
O         85.11287       19.96007       50.01000
C         85.82095       17.70443       52.49717
C         84.45326       17.22113       52.00361
C         83.92319       16.16343       52.91544
O         83.29861       15.21191       52.47882
O         84.10416       16.33907       54.23612
H         87.80487       19.14305       53.20598
H         86.69522       18.26366       50.68499
H         85.71787       18.03636       53.54496
H         86.54590       16.85868       52.52442
H         84.46499       16.89297       50.94348
H         83.76164       18.08577       52.09887
N         84.90448       20.86115       52.03593
C         85.22276       21.00012       53.45213
C         86.32895       22.01165       53.65293
O         86.76555       22.64599       52.69901
C         83.97601       21.47608       54.25007
C         82.74276       20.57004       54.13656
C         82.91991       19.19980       54.71447
O         82.03787       18.37121       54.55957
O         84.01472       18.88445       55.43470
H         84.29200       21.57922       51.61561
H         85.59525       20.06150       53.86831
H         83.68204       22.47581       53.85976
H         84.22689       21.59721       55.32522
H         82.45711       20.48578       53.06851
H         81.89727       21.04349       54.68347
N         86.83652       22.20933       54.89914
C         87.84263       23.20746       55.17248
H         88.75148       23.02084       54.56335
H         87.43492       24.21586       54.94639
H         88.11470       23.17211       56.24875
H         86.48947       21.63604       55.68379
Ca        82.95118       16.21698       56.15776
O         83.35231       13.68267       56.98508
H         84.31890       13.56842       56.80410
H         82.94140       12.80961       56.77133
O         81.10405       14.92601       54.54444
H         81.44319       14.35354       53.81371
H         80.16762       15.12062       54.29570

Ca 1.70



