%chk=loop2.cluster165.chk
%nprocshared=48
%mem=10GB
%nosave
#b3lyp/svp scf=(tight,noincore) Test 
#IOP(5/87=12) Density=Current Pop=(MK,readradii) iop(6/33=2) iop(6/42=6)

loop2.cluster165 

   -2  1 
C         82.26361       86.49774       42.31827
C         83.40821       86.25892       43.25470
O         83.78418       87.16831       43.98117
H         81.37346       86.83468       42.88992
H         82.55140       87.27979       41.58645
H         81.99745       85.57199       41.76625
N         84.02881       85.04415       43.28409
C         85.15835       84.77049       44.16723
C         84.71104       84.63242       45.62594
O         85.55168       84.43475       46.49393
C         85.93583       83.55183       43.62855
C         87.34598       83.42491       44.15074
O         88.05370       82.51711       43.74599
O         87.86447       84.34064       44.99314
H         83.71778       84.31100       42.62909
H         85.85294       85.63541       44.08992
H         86.04844       83.68601       42.52910
H         85.35655       82.62182       43.80875
N         83.39631       84.78608       45.97135
C         82.93798       84.92482       47.34730
C         81.41497       85.07569       47.39215
O         80.82955       85.54156       46.42196
C         83.55745       86.20412       47.94726
H         82.69573       84.86752       45.22669
H         83.24981       84.02737       47.91840
H         83.29728       87.07683       47.30827
H         83.19498       86.41534       48.97135
H         84.66172       86.13470       47.99678
N         80.68788       84.79053       48.50601
C         81.25683       84.22613       49.73026
C         81.59808       82.76627       49.53812
O         81.33500       82.22255       48.47335
C         80.24171       84.37826       50.86342
C         79.94417       85.83048       51.08112
O         80.89503       86.64961       51.56950
O         78.85049       86.27996       50.78583
H         79.67510       84.99498       48.47809
H         82.17000       84.77927       50.01937
H         80.60520       83.94293       51.81866
H         79.32446       83.84843       50.55111
N         82.21365       82.06490       50.53673
C         82.56400       80.66124       50.38610
C         83.48589       80.47677       49.20347
O         84.16528       81.42720       48.84093
H         82.45129       82.54174       51.41865
H         81.63427       80.08962       50.24363
H         83.05826       80.28746       51.30987
N         83.58472       79.30621       48.51291
C         82.89452       78.05984       48.85150
C         81.38691       78.09175       48.59504
O         80.69668       77.17797       49.02830
C         83.48480       76.89871       48.01697
C         84.98177       76.76694       48.20480
N         85.49143       75.82230       49.02268
O         85.74101       77.52637       47.62061
H         84.23484       79.30494       47.71723
H         83.08093       77.84210       49.92927
H         83.27237       77.05523       46.93429
H         82.98806       75.94879       48.31126
H         84.87045       75.18561       49.54022
H         86.51103       75.75479       49.15794
N         80.81493       79.08580       47.85590
C         79.39146       79.13662       47.55431
C         78.57312       79.25676       48.81426
O         77.68215       78.44903       49.03479
H         81.41039       79.82529       47.46241
H         79.08796       78.23391       46.97890
H         79.20120       80.02738       46.91663
N         78.83642       80.25736       49.69482
C         78.16378       80.40799       50.97549
C         77.33629       81.66579       50.88423
O         77.60121       82.62869       51.58438
C         79.24428       80.42096       52.09482
C         78.63866       80.45378       53.50322
O         80.02426       79.25840       51.97629
H         79.56217       80.94132       49.45414
H         77.47238       79.56130       51.17236
H         79.89532       81.31625       51.94864
H         80.78347       79.34855       52.61103
H         78.02770       81.36052       53.67654
H         78.01397       79.54997       53.65977
H         79.45734       80.44936       54.25569
N         76.31111       81.72543       49.98966
C         75.60839       82.96573       49.68127
C         74.32427       83.11211       50.46042
O         73.87049       82.17012       51.09911
C         75.33833       83.08648       48.14223
C         76.67423       83.17761       47.36872
C         74.41828       81.96149       47.61189
C         76.50669       83.18716       45.84737
H         76.08005       80.87293       49.46114
H         76.23490       83.82684       50.00270
H         74.79331       84.03106       47.95109
H         77.34188       82.32897       47.62712
H         77.17624       84.12014       47.67878
H         73.47539       81.91107       48.19500
H         74.11995       82.16955       46.56310
H         74.91364       80.97129       47.63051
H         76.16507       82.19058       45.49565
H         75.77193       83.95182       45.52425
H         77.48498       83.39544       45.36792
N         73.66853       84.30416       50.40742
C         72.37089       84.54764       51.00217
C         71.30609       84.52794       49.90164
O         71.64345       84.31848       48.74319
C         72.40750       85.85108       51.85394
C         72.73165       87.13564       51.11242
O         73.99248       87.56545       50.88349
O         71.81651       87.87340       50.79337
H         74.08704       85.06292       49.85602
H         72.09337       83.71378       51.68526
H         73.09075       85.74794       52.72426
H         71.39352       85.98148       52.28836
N         69.98538       84.68272       50.20879
C         68.87895       84.56407       49.25420
C         69.06441       85.40672       47.99051
O         69.34574       84.84051       46.95025
C         68.53899       83.08725       48.93201
C         67.11005       82.98366       48.40655
C         66.78559       83.22747       47.05542
C         66.07180       82.68519       49.30867
C         65.45387       83.17088       46.62701
C         64.74489       82.63396       48.87460
C         64.43571       82.87559       47.53556
H         69.73470       84.85358       51.19497
H         67.96932       84.89816       49.79242
H         68.57079       82.54655       49.90315
H         69.27684       82.57848       48.27408
H         67.54770       83.45555       46.32860
H         66.29034       82.51259       50.35473
H         65.20994       83.36003       45.58898
H         63.95515       82.41326       49.58065
H         63.40628       82.83622       47.20287
N         68.89559       86.76447       47.98808
C         69.02272       87.56881       46.77443
C         70.39652       87.53440       46.11027
O         70.55487       88.13310       45.05219
C         68.75866       88.99151       47.28195
C         67.85828       88.77004       48.48264
C         68.44220       87.51678       49.12721
H         68.23576       87.21949       46.06787
H         69.70544       89.40772       47.69261
H         68.36314       89.68675       46.50952
H         67.76546       89.63426       49.17331
H         66.85021       88.51087       48.08748
H         69.31373       87.71177       49.78581
H         67.61594       87.03225       49.68867
N         71.45187       86.90221       46.69955
C         72.79693       86.89168       46.14412
C         72.97274       85.74676       45.16212
O         73.80036       85.85222       44.26890
C         73.79978       86.86734       47.30823
C         75.27012       86.98086       46.88960
C         76.09475       87.26272       48.10378
O         76.27822       86.30981       49.03333
O         76.45916       88.40378       48.32523
H         71.31834       86.47396       47.62243
H         72.96554       87.84828       45.59926
H         73.63871       85.96587       47.92445
H         73.55101       87.75164       47.94106
H         75.35921       87.84399       46.19979
H         75.63636       86.06957       46.38041
N         72.17616       84.64324       45.23010
C         72.21113       83.60687       44.22474
H         71.96237       84.04776       43.23561
H         73.21110       83.12931       44.18805
H         71.44540       82.83629       44.46091
H         71.50703       84.54243       45.99914
Ca        76.12495       86.93566       51.16109
O         77.35336       89.84409       50.76457
H         76.97461       90.67859       51.13662
H         77.44524       90.03603       49.79910
O         75.90566       84.90127       52.85297
H         75.49702       84.42118       53.61187
H         76.82987       84.55635       52.79292
O         78.09681       87.07859       53.67456
H         79.02195       86.90556       53.37459
H         78.10813       86.82674       54.63075

Ca 1.70



