%chk=loop2.cluster60.chk
%nprocshared=48
%mem=10GB
%nosave
#b3lyp/svp scf=(tight,noincore) Test 
#IOP(5/87=12) Density=Current Pop=(MK,readradii) iop(6/33=2) iop(6/42=6)

loop2.cluster60 

   -2  1 
C         63.70278      -21.30573       28.81441
C         63.30009      -22.50456       29.62040
O         63.38735      -22.45826       30.83053
H         64.65416      -21.51345       28.28051
H         62.90866      -21.05855       28.08020
H         63.85585      -20.42758       29.47907
N         62.82085      -23.61973       29.00867
C         62.42641      -24.82823       29.73715
C         63.62124      -25.47179       30.43362
O         63.49178      -25.87615       31.57900
C         61.79124      -25.82589       28.75724
C         61.35817      -27.09146       29.44390
O         60.39193      -27.05941       30.38206
O         61.88740      -28.15255       29.15581
H         62.70781      -23.59687       27.98334
H         61.64853      -24.57291       30.49628
H         62.53076      -26.06184       27.96358
H         60.89917      -25.36113       28.28011
N         64.83531      -25.55168       29.80629
C         66.05496      -26.08974       30.42498
C         66.50613      -25.31451       31.67982
O         67.45615      -25.72197       32.33302
C         65.89724      -27.58965       30.70804
H         64.91182      -25.18761       28.84517
H         66.86481      -26.00653       29.66722
H         66.90299      -28.04993       30.82469
H         65.31001      -27.77946       31.62952
H         65.39911      -28.08975       29.84892
N         65.85238      -24.17816       32.05735
C         66.11592      -23.35499       33.23302
C         65.90567      -24.13255       34.50535
O         66.71907      -24.07468       35.41683
C         67.47223      -22.64356       33.14748
C         67.65955      -22.06575       31.77642
O         68.81171      -22.27266       31.11745
O         66.70512      -21.60337       31.17845
H         65.10271      -23.84047       31.46336
H         65.33499      -22.55618       33.21991
H         68.30600      -23.34883       33.34150
H         67.49731      -21.84052       33.91811
N         64.82356      -24.94099       34.59667
C         64.57887      -25.82323       35.70962
C         64.15299      -25.13046       36.97685
O         64.18577      -23.91214       37.07846
H         64.19294      -25.00975       33.79025
H         65.47010      -26.45720       35.90097
H         63.74191      -26.49318       35.41329
N         63.67098      -25.90884       37.98071
C         63.15458      -25.44740       39.25878
C         62.07764      -24.37974       39.12366
O         62.15734      -23.34244       39.76693
C         64.29848      -25.08085       40.22278
C         63.77988      -24.96327       41.63969
N         63.98279      -23.84068       42.36391
O         63.17197      -25.90011       42.13839
H         63.62821      -26.92558       37.80768
H         62.65914      -26.33861       39.70389
H         64.81543      -24.15469       39.88870
H         65.03815      -25.91021       40.21469
H         64.50940      -23.04832       41.97116
H         63.61873      -23.77514       43.32640
N         60.99913      -24.60806       38.32942
C         59.87705      -23.68709       38.26592
C         60.04924      -22.59173       37.24844
O         59.09298      -21.85882       37.02559
H         60.93989      -25.49198       37.80207
H         59.62175      -23.29327       39.27191
H         58.99889      -24.26899       37.91031
N         61.19166      -22.46648       36.51398
C         61.18052      -21.74109       35.25846
C         61.55797      -20.28532       35.40024
O         62.28991      -19.90853       36.30582
C         62.00577      -22.44616       34.16706
C         61.64051      -23.92661       34.02817
O         61.73890      -21.82554       32.93811
H         61.97163      -23.10403       36.69431
H         60.13707      -21.77633       34.86822
H         63.09257      -22.38927       34.42279
H         62.56180      -21.34655       32.67331
H         61.93840      -24.50264       34.92910
H         60.55210      -24.05444       33.86145
H         62.17175      -24.34937       33.15562
N         60.99976      -19.39994       34.53626
C         61.17935      -17.95746       34.60247
C         62.52057      -17.53565       34.04853
O         62.93422      -18.06762       33.03236
C         60.03286      -17.26723       33.82323
C         60.03097      -15.75506       34.14709
C         60.08981      -17.53529       32.29950
C         58.93715      -14.98667       33.42310
H         60.32970      -19.77903       33.85284
H         61.07149      -17.64264       35.66546
H         59.08554      -17.70549       34.21258
H         61.00423      -15.29620       33.87245
H         59.88779      -15.62906       35.24442
H         59.11961      -17.26437       31.83680
H         60.89674      -16.93985       31.82427
H         60.26341      -18.60149       32.05325
H         57.94277      -15.41630       33.66240
H         58.97315      -13.92439       33.73837
H         59.11006      -15.02105       32.32753
N         63.23375      -16.54386       34.64876
C         64.56104      -16.14913       34.20160
C         65.33060      -15.59618       35.38189
O         65.87200      -14.50201       35.33922
C         64.53774      -15.17627       33.00503
C         65.92782      -14.80140       32.53791
O         67.01990      -15.43145       33.02115
O         66.06764      -13.89433       31.73561
H         62.85477      -16.12458       35.51034
H         65.11728      -17.06653       33.90600
H         64.02276      -14.25475       33.33478
H         63.98384      -15.60622       32.14266
N         65.48974      -16.40379       36.44995
C         66.51718      -16.16850       37.44024
C         66.43692      -14.90346       38.29186
O         67.51346      -14.41220       38.62652
C         66.74806      -17.44057       38.28037
C         65.66682      -17.78233       39.27564
C         64.59303      -18.62527       38.92798
C         65.76783      -17.30575       40.59116
C         63.63642      -18.97562       39.88772
C         64.81482      -17.66491       41.54735
C         63.74944      -18.49784       41.19647
H         64.99898      -17.30772       36.45229
H         67.46180      -16.07999       36.85571
H         67.70991      -17.33882       38.82570
H         66.89451      -18.30483       37.59357
H         64.50025      -19.01861       37.92403
H         66.58904      -16.65920       40.87324
H         62.81264      -19.62586       39.62037
H         64.90177      -17.29202       42.55899
H         63.01385      -18.77478       41.94025
N         65.28834      -14.37666       38.83395
C         63.93709      -14.85496       38.59574
C         63.15454      -13.96769       37.62677
O         62.03438      -14.34366       37.29831
C         63.31799      -14.72943       39.98924
C         63.96171      -13.45960       40.55375
C         65.37327      -13.48295       39.97026
H         63.89395      -15.90120       38.24487
H         62.20614      -14.74441       40.03104
H         63.68776      -15.57257       40.58954
H         63.42810      -12.58496       40.14212
H         63.94756      -13.41091       41.66678
H         65.75263      -12.46986       39.70628
H         66.05197      -13.94875       40.72018
N         63.63888      -12.78233       37.14021
C         62.83023      -11.89402       36.30354
C         63.30425      -11.85601       34.87212
O         64.49082      -11.69616       34.61611
C         62.74919      -10.46195       36.86344
C         61.90686      -10.40979       38.14447
C         61.51677       -9.00242       38.49600
O         60.21479       -8.68963       38.65310
O         62.36711       -8.13872       38.63490
H         64.59016      -12.47291       37.39640
H         61.77968      -12.25087       36.25635
H         62.23427       -9.83570       36.10024
H         63.76299      -10.02955       37.03050
H         62.47130      -10.87440       38.97391
H         60.96234      -10.97866       37.99430
N         62.37330      -11.93575       33.87544
C         62.68703      -11.90049       32.46634
H         63.77720      -11.85688       32.27253
H         62.27143      -12.81531       31.99394
H         62.19844      -11.01518       32.00596
H         61.37484      -12.00146       34.12810
Ca        68.16872      -17.47753       31.42865
O         65.71645      -18.73785       32.00095
H         64.80922      -18.44936       31.75970
H         65.84499      -19.50492       31.40415
O         67.32218      -19.07008       29.30999
H         67.54798      -19.91904       29.75814
H         67.04029      -19.33746       28.40288
O         68.96276      -14.87600       30.72063
H         68.36531      -14.09257       30.63960
H         69.71413      -14.56210       31.28168
O         70.55802      -16.89488       32.86561
H         70.89486      -17.64033       33.42200
H         71.37065      -16.40592       32.58615
O         66.51382      -16.28529       29.34057
H         66.37690      -15.61219       30.04696
H         65.62794      -16.35997       28.90976
O         70.06783      -17.40502       29.31298
H         69.75173      -17.07774       28.43420
H         70.56160      -18.23835       29.11066
O         70.09299      -19.57433       31.58124
H         70.28203      -20.25682       30.89177
H         70.71675      -19.78390       32.31958
O         68.13543      -18.64641       33.95572
H         68.98108      -18.67382       34.46803
H         67.42359      -18.76297       34.63192

Ca 1.70



