%chk=loop2.cluster119.chk
%nprocshared=48
%mem=10GB
%nosave
#b3lyp/svp scf=(tight,noincore) Test 
#IOP(5/87=12) Density=Current Pop=(MK,readradii) iop(6/33=2) iop(6/42=6)

loop2.cluster119 

   -2  1 
C         94.86621       75.33197       45.00705
C         96.35779       75.17080       45.03703
O         97.07727       76.11930       44.75713
H         94.40891       74.54652       44.36882
H         94.47753       75.22472       46.04208
H         94.57444       76.33039       44.61818
N         96.89412       73.96358       45.36225
C         98.32851       73.74095       45.49754
C         98.80767       74.32068       46.80313
O         98.17029       74.09621       47.82486
C         98.63834       72.23627       45.45059
C        100.11287       71.95606       45.59082
O        100.91666       72.48891       44.84139
O        100.54890       71.10801       46.54128
H         96.25231       73.17125       45.52166
H         98.86825       74.19156       44.63350
H         98.30495       71.85619       44.46233
H         98.08180       71.69583       46.24693
N         99.93383       75.08639       46.83970
C        100.39579       75.71882       48.06409
C         99.93921       77.17127       48.03366
O         99.42343       77.58999       47.00534
C        101.91454       75.52339       48.19041
H        100.44075       75.27949       45.96248
H         99.90928       75.22782       48.91849
H        102.30188       75.79770       49.18599
H        102.17309       74.45260       48.04457
H        102.44222       76.12211       47.41838
N        100.01286       78.01782       49.09926
C        100.57839       77.70240       50.40761
C         99.86588       76.55664       51.09749
O         98.66885       76.39159       50.91377
C        100.54728       78.95281       51.30447
C        101.36072       80.05928       50.69296
O        102.52377       79.86851       50.37812
O        100.80906       81.26055       50.47947
H         99.63227       78.96700       48.95658
H        101.64622       77.44558       50.30251
H        100.98853       78.71191       52.29275
H         99.49870       79.29580       51.45859
N        100.55611       75.73992       51.94846
C         99.93024       74.63726       52.66589
C         99.58263       73.47544       51.75436
O         99.91243       73.52019       50.58099
H        101.55417       75.93204       52.12556
H         99.03581       75.01225       53.19446
H        100.64577       74.25534       53.42622
N         98.96263       72.35057       52.21685
C         98.54498       72.16009       53.60451
C         97.34714       73.01218       53.99061
O         97.07755       73.13432       55.17748
C         98.16019       70.68509       53.83725
C         99.32918       69.76432       53.60328
N        100.41493       69.81835       54.40912
O         99.29185       68.95735       52.68656
H         98.82185       71.57655       51.54779
H         99.39751       72.41847       54.26923
H         97.32955       70.42620       53.14101
H         97.79881       70.52743       54.87618
H        100.44963       70.48062       55.19786
H        101.21246       69.18516       54.25246
N         96.54377       73.58364       53.04761
C         95.37815       74.37053       53.40647
C         95.79149       75.59020       54.17347
O         95.30662       75.80516       55.27652
H         96.74149       73.44428       52.04696
H         94.66218       73.75821       53.99751
H         94.86207       74.70119       52.47772
N         96.68130       76.45448       53.62293
C         97.06168       77.70540       54.24984
C         96.44672       78.76421       53.39587
O         97.07767       79.23869       52.46355
C         98.59284       77.83011       54.40898
C         98.94885       79.11585       55.16812
O         99.07328       76.72882       55.13199
H         97.03992       76.25101       52.67940
H         96.62466       77.78878       55.26856
H         99.06381       77.83882       53.40385
H        100.06050       76.72218       55.01290
H         98.43098       79.12517       56.15185
H        100.04270       79.16518       55.35012
H         98.64725       80.01632       54.59368
N         95.12188       79.01490       53.53248
C         94.36199       79.85529       52.62804
C         93.66078       80.95997       53.39425
O         93.75641       81.02058       54.61781
C         93.39328       78.96155       51.78041
C         94.17158       78.04536       50.79092
C         92.50576       78.07865       52.68293
C         94.90820       78.78766       49.66672
H         94.61591       78.53492       54.29499
H         95.03613       80.39581       51.93533
H         92.71790       79.60415       51.18317
H         93.46025       77.35225       50.29064
H         94.90558       77.43247       51.35352
H         91.76742       77.51837       52.07200
H         93.11147       77.32242       53.22789
H         91.95250       78.69573       53.42077
H         95.63335       79.53255       50.04382
H         95.47381       78.06370       49.04625
H         94.18976       79.29121       48.99613
N         92.97048       81.91170       52.71631
C         92.41077       83.10009       53.32920
C         91.25251       83.63233       52.50898
O         91.40134       83.95542       51.33666
C         93.48941       84.16772       53.59615
C         94.47566       84.32626       52.48247
O         95.67208       83.71669       52.58071
O         94.21962       85.01807       51.51106
H         92.90556       81.83169       51.69744
H         92.00560       82.83226       54.33074
H         94.07437       83.82567       54.47354
H         93.04229       85.14773       53.87761
N         90.04800       83.75289       53.11818
C         88.82970       84.27931       52.51873
C         88.33009       83.41860       51.35761
O         88.28238       82.21015       51.52014
C         87.77396       84.28178       53.64377
C         86.39568       84.65628       53.20346
C         85.50309       83.64756       52.81012
C         85.98142       85.99449       53.20363
C         84.20747       83.97302       52.41998
C         84.67941       86.31748       52.81381
C         83.79276       85.30695       52.42431
H         90.00338       83.47536       54.11284
H         89.00627       85.32467       52.19464
H         88.10556       84.95116       54.46876
H         87.71951       83.26097       54.08591
H         85.81709       82.60994       52.80718
H         86.66462       86.77915       53.50692
H         83.52617       83.18859       52.11947
H         84.35680       87.34938       52.81740
H         82.78417       85.55607       52.12780
N         87.83530       83.97392       50.19429
C         87.21194       83.20243       49.11955
C         88.05394       82.10756       48.48625
O         87.51783       81.32538       47.71170
C         86.89947       84.27972       48.07093
C         86.58137       85.47708       48.94025
C         87.67734       85.39955       50.00177
H         86.28601       82.75322       49.54626
H         87.83644       84.53686       47.52264
H         86.11890       84.00534       47.32978
H         86.51923       86.45623       48.42071
H         85.59824       85.27040       49.42614
H         88.64482       85.82491       49.66347
H         87.29686       85.93543       50.89214
N         89.37668       81.97951       48.78183
C         90.20519       80.88244       48.28671
C         89.70299       79.51647       48.74261
O         90.10876       78.52248       48.15568
C         91.63135       81.04284       48.83685
C         92.39471       82.23067       48.22688
C         93.71868       82.46318       48.90129
O         94.45691       83.53689       48.59068
O         94.13116       81.69840       49.75335
H         89.81191       82.68655       49.38740
H         90.21311       80.89340       47.17268
H         92.21253       80.12149       48.65459
H         91.53395       81.18253       49.93795
H         91.79665       83.15675       48.33542
H         92.57461       82.04308       47.14681
N         88.83274       79.38633       49.78401
C         88.35373       78.10522       50.25316
H         87.30650       77.97047       49.91416
H         88.97855       77.26164       49.89246
H         88.37048       78.09332       51.36372
H         88.48890       80.21797       50.26962
Ca        96.31618       83.78259       49.82850
O         97.17661       84.73687       47.30490
H         98.12415       84.94592       47.11148
H         96.93596       84.02015       46.66707
O         99.25143       84.10142       49.81163
H         99.73342       84.70361       50.42931
H         99.79161       83.27764       49.81811
O         97.76314       81.97668       51.32342
H         97.56714       81.04091       51.08440
H         98.72431       81.98010       51.54517
O         97.02525       81.69923       48.13277
H         97.84216       81.19660       48.37458
H         96.33912       81.00848       47.95750
O         96.39323       86.46551       49.51722
H         97.37566       86.42194       49.39764
H         96.25288       87.13680       50.22852
O         97.89015       85.28521       52.08557
H         98.72351       85.15258       52.60247
H         97.77034       86.26603       52.04608

Ca 1.70



