%chk=loop4.cluster150.chk
%nprocshared=48
%mem=10GB
%nosave
#b3lyp/svp scf=(tight,noincore) Test 
#IOP(5/87=12) Density=Current Pop=(MK,readradii) iop(6/33=2) iop(6/42=6)

loop4.cluster150 

   -3  1 
C         34.96936       55.21600        7.62077
C         36.25015       54.86339        8.31708
O         36.75130       55.66912        9.08556
H         34.18852       55.48181        8.36323
H         35.15209       56.07899        6.94759
H         34.59779       54.36648        7.00919
N         36.84154       53.65888        8.08294
C         38.10517       53.24906        8.69243
C         39.22954       54.18609        8.25546
O         39.72127       54.09466        7.13772
C         38.33047       51.75531        8.35399
C         39.67255       51.11950        8.59556
O         40.21480       50.54471        7.67038
O         40.28101       51.10461        9.78515
H         36.36578       53.00601        7.44154
H         37.99058       53.32171        9.79773
H         38.15220       51.62684        7.26589
H         37.54440       51.17718        8.88686
N         39.62843       55.16941        9.11228
C         40.65763       56.17496        8.84285
C         42.06326       55.68324        9.17211
O         43.00710       56.38547        8.85400
C         40.40137       57.50556        9.64672
C         40.05618       57.24353       11.14363
C         39.30245       58.32801        8.96092
C         40.10036       58.46973       12.04723
H         39.11394       55.22033        9.99131
H         40.66981       56.41136        7.75318
H         41.32678       58.12263        9.60201
H         40.76135       56.49731       11.57101
H         39.02229       56.85727       11.21497
H         39.61937       58.57724        7.92558
H         38.35223       57.75991        8.91765
H         39.12875       59.28813        9.48537
H         41.13500       58.86279       12.10227
H         39.40860       59.26050       11.69911
H         39.77954       58.17097       13.06973
N         42.27085       54.50013        9.82015
C         43.61674       54.02599       10.16453
C         43.97889       52.75270        9.40454
O         45.15723       52.40703        9.37432
C         43.72642       53.87854       11.69217
C         42.68148       52.96920       12.24724
O         42.66918       51.78474       11.96449
O         41.73002       53.47768       13.04245
H         41.46633       53.92837       10.09504
H         44.37461       54.78194        9.86639
H         43.56024       54.88235       12.14280
H         44.73014       53.52212       12.00466
N         43.04325       52.03451        8.71532
C         43.37425       50.96247        7.79034
C         43.31463       49.54639        8.35400
O         43.61375       48.62127        7.61860
H         42.06983       52.35775        8.72292
H         44.35758       51.16580        7.31667
H         42.63496       50.99872        6.96296
N         42.92664       49.29873        9.63703
C         42.85996       47.94329       10.20468
C         41.85951       47.01499        9.52872
O         42.09925       45.81289        9.51039
C         42.61778       47.99062       11.73696
C         41.50509       48.87200       12.23599
O         40.65440       49.30113       11.48555
O         41.54195       49.31328       13.50526
H         42.69451       50.09443       10.23521
H         43.85890       47.46675       10.08952
H         43.53595       48.42413       12.17570
H         42.49259       46.96917       12.16134
N         40.70823       47.48571        8.98043
C         39.66240       46.62414        8.45143
C         38.32191       46.96592        9.06327
O         37.30196       46.64788        8.47017
H         40.54546       48.49783        8.96519
H         39.85737       45.54337        8.64599
H         39.60228       46.75822        7.35249
N         38.25453       47.53986       10.30027
C         37.01202       47.70696       11.03809
C         36.71436       49.14520       11.39917
O         37.57050       50.00726       11.25312
C         37.13590       46.85000       12.30965
C         37.16190       45.36494       11.92013
C         37.32368       44.44916       13.09948
N         38.14661       43.37708       13.01913
O         36.67170       44.63975       14.11497
H         39.12311       47.75166       10.79409
H         36.14637       47.37362       10.42805
H         36.27502       47.03051       12.98680
H         38.06812       47.12970       12.85637
H         37.97230       45.15604       11.18660
H         36.19160       45.13889       11.43410
H         38.66043       43.17202       12.14876
H         38.23212       42.72581       13.81244
N         35.46100       49.46562       11.85616
C         35.05588       50.81989       12.20267
C         34.67039       50.87241       13.67937
O         33.65764       50.32261       14.08930
C         33.89321       51.31922       11.30028
C         33.50389       52.77000       11.64222
C         34.26346       51.24936        9.81134
H         34.75859       48.71621       11.94004
H         35.91003       51.51255       12.02813
H         33.00970       50.66394       11.46330
H         32.67116       53.11452       10.99390
H         33.16025       52.85258       12.69159
H         34.36922       53.45111       11.49345
H         34.53581       50.21452        9.51850
H         33.39125       51.55571        9.19404
H         35.11471       51.92525        9.58355
N         35.48840       51.54190       14.52314
C         35.27797       51.82086       15.93544
C         34.15486       52.83108       16.07415
O         33.77795       53.43181       15.08460
C         36.62774       52.41356       16.46015
C         36.90743       52.48681       17.93889
N         38.19132       52.49431       18.36947
O         36.00468       52.51151       18.75386
H         36.34614       51.85958       14.12022
H         35.05232       50.85937       16.44415
H         36.84197       53.40259       15.99265
H         37.41617       51.73195       16.08006
H         38.97123       52.44031       17.69705
H         38.40405       52.52010       19.37660
N         33.56568       53.07292       17.27004
C         32.52453       54.07836       17.45774
C         33.01661       55.48282       17.15481
O         32.31886       56.23311       16.48856
C         32.01672       53.99852       18.90787
C         30.86333       54.92658       19.19420
C         29.71833       54.90449       18.37962
C         30.90637       55.79374       20.29892
C         28.63194       55.72673       18.66804
C         29.80451       56.60113       20.59899
C         28.66086       56.56301       19.78588
O         27.58069       57.31333       20.07870
H         33.83567       52.49233       18.07296
H         31.68229       53.83925       16.77520
H         32.85758       54.18278       19.61534
H         31.65461       52.96222       19.07735
H         29.66069       54.24878       17.52263
H         31.77800       55.82372       20.94231
H         27.75819       55.69755       18.03046
H         29.83484       57.24658       21.46758
H         27.54050       57.85528       20.87871
N         34.22334       55.89625       17.62275
C         34.76693       57.23132       17.37889
C         34.84790       57.52225       15.88936
O         34.39076       58.56621       15.44495
C         36.15487       57.31390       18.04192
C         36.71854       58.73643       18.05352
C         37.99312       58.78312       18.84575
O         39.02392       59.18278       18.33015
O         37.99883       58.39465       20.13651
H         34.78876       55.22150       18.16014
H         34.10843       57.98410       17.86600
H         36.86577       56.61257       17.54751
H         36.03280       56.99311       19.10029
H         35.98440       59.41172       18.54241
H         36.89335       59.09039       17.01404
N         35.37427       56.59125       15.05594
C         35.41944       56.73321       13.60212
C         34.01936       56.87596       13.02879
O         33.81311       57.67678       12.12775
C         36.10444       55.49491       13.00094
C         37.56057       55.41761       13.48995
C         38.22075       54.20717       12.98388
O         39.27859       54.27038       12.20181
O         37.82719       53.11972       13.31362
H         35.70646       55.71170       15.47974
H         36.02817       57.61930       13.31120
H         36.10133       55.55848       11.88854
H         35.54359       54.57856       13.29503
H         37.63680       55.36265       14.59174
H         38.11285       56.30722       13.14784
N         33.01102       56.09940       13.50415
C         31.65169       56.16798       13.02367
H         31.14038       57.05727       13.44925
H         31.62529       56.17806       11.91523
H         31.10670       55.26377       13.37268
H         33.21228       55.44645       14.25891
Ca        39.74528       52.23942       11.54272
O         38.56626       49.92267       14.11956
H         39.16506       49.15132       13.97177
H         38.87960       50.30480       14.97407
O         40.60227       51.91778       15.57551
H         40.90835       52.70615       15.07040
H         41.38825       51.31789       15.60470

Ca 1.70



