%chk=loop4.cluster81.chk
%nprocshared=48
%mem=10GB
%nosave
#b3lyp/svp scf=(tight,noincore) Test 
#IOP(5/87=12) Density=Current Pop=(MK,readradii) iop(6/33=2) iop(6/42=6)

loop4.cluster81 

   -3  1 
C         68.95791       54.81561       45.97868
C         68.44681       55.24420       47.31625
O         67.95223       56.35077       47.44939
H         70.03328       54.55329       46.07643
H         68.39485       53.92422       45.63236
H         68.85408       55.63324       45.23572
N         68.55688       54.40020       48.37247
C         68.15051       54.75227       49.72584
C         68.92773       55.95973       50.24649
O         70.14831       55.98977       50.15849
C         68.33178       53.52718       50.62741
C         68.06268       53.84053       52.05706
O         66.97283       54.26071       52.41439
O         69.05281       53.67658       52.94842
H         68.96604       53.46717       48.20409
H         67.06875       54.98918       49.73753
H         69.37580       53.15661       50.54922
H         67.64066       52.72236       50.29162
N         68.24393       56.99469       50.81457
C         68.84075       58.23672       51.28975
C         68.57731       58.38325       52.78766
O         69.53180       58.45883       53.54563
C         68.25856       59.40075       50.42494
C         68.85613       59.28979       48.99600
C         68.53069       60.79265       51.01812
C         68.23256       60.22114       47.95902
H         67.22380       56.90583       50.90002
H         69.94844       58.23365       51.16117
H         67.15214       59.27905       50.38148
H         68.70926       58.26533       48.62070
H         69.95278       59.47211       49.03715
H         69.61952       60.99236       51.07942
H         68.04679       61.57808       50.40164
H         68.08146       60.88041       52.02883
H         68.39427       61.28572       48.21502
H         68.71188       60.03374       46.97394
H         67.14619       60.01880       47.86374
N         67.30450       58.44866       53.28225
C         67.03582       58.62830       54.72050
C         67.40859       57.40799       55.57385
O         67.32774       57.50455       56.79244
C         65.57865       59.10868       54.94474
C         64.56945       58.12112       54.45196
O         63.40779       58.45508       54.27120
O         64.98129       56.87668       54.15686
H         66.51777       58.43179       52.61834
H         67.66886       59.46803       55.07488
H         65.46977       60.05248       54.36288
H         65.37863       59.34406       56.01167
N         67.89689       56.25870       55.02312
C         68.53091       55.22849       55.82875
C         67.56019       54.21040       56.39058
O         67.04741       54.38318       57.48419
H         67.97807       56.17776       53.99866
H         69.21866       55.65823       56.58523
H         69.23147       54.68311       55.16368
N         67.33473       53.07552       55.67494
C         66.45017       51.97404       56.06065
C         66.52324       50.74003       55.11744
O         65.97140       49.71336       55.49473
C         64.98301       52.46061       56.18447
C         64.52791       53.28560       55.01334
O         64.10325       54.54508       55.21068
O         64.53444       52.82775       53.88941
H         67.84422       53.01217       54.81170
H         66.78511       51.60003       57.05461
H         64.88037       53.10205       57.08262
H         64.30012       51.59295       56.31862
N         67.19047       50.73097       53.91429
C         67.24486       49.57580       53.03570
C         65.98114       49.42155       52.21865
O         65.68470       48.32097       51.78174
H         67.66214       51.55588       53.55267
H         67.52864       48.65976       53.59855
H         68.05155       49.74582       52.29039
N         65.18824       50.50598       51.97484
C         63.91577       50.44164       51.26577
C         63.82457       51.61032       50.30192
O         64.00346       52.74100       50.73623
C         62.74998       50.54595       52.27051
C         62.85050       49.49351       53.38921
C         61.65952       49.48607       54.31447
N         61.61522       48.60672       55.34135
O         60.73053       50.26213       54.14145
H         65.47369       51.41110       52.35608
H         63.80345       49.47082       50.73581
H         61.80464       50.39823       51.70299
H         62.71767       51.55048       52.74062
H         63.75456       49.69989       54.00143
H         62.94637       48.48363       52.93808
H         62.39136       47.94653       55.49762
H         60.80306       48.58460       55.97541
N         63.50771       51.42680       48.98720
C         63.43791       52.55445       48.06241
C         62.01082       53.07968       47.97065
O         61.12890       52.36314       47.51755
C         64.05874       52.19764       46.68177
C         64.09718       53.42528       45.75389
C         65.48942       51.65898       46.85417
H         63.29127       50.47994       48.64325
H         64.07447       53.36592       48.45145
H         63.44911       51.41012       46.18730
H         63.07447       53.80156       45.55457
H         64.70225       54.23805       46.20533
H         64.54945       53.15899       44.77475
H         65.47706       50.70350       47.41890
H         65.95081       51.45646       45.86421
H         66.12473       52.38974       47.40100
N         61.73710       54.36655       48.35110
C         60.44944       55.02356       48.15710
C         60.49400       55.77669       46.83912
O         61.52392       55.74776       46.19729
C         60.07903       55.84842       49.42268
C         61.06365       56.91702       49.86113
N         61.07170       58.13433       49.27929
O         61.80175       56.70403       50.81061
H         62.51212       54.95424       48.66623
H         59.65419       54.25768       48.02640
H         60.02107       55.11160       50.25204
H         59.07272       56.30783       49.33143
H         60.40790       58.34967       48.52893
H         61.70729       58.87356       49.62045
N         59.38889       56.35540       46.29947
C         59.36367       56.89576       44.93010
C         60.22355       58.14565       44.75691
O         60.91068       58.26110       43.75354
C         57.90541       57.12801       44.51078
C         57.69773       57.57416       43.07998
C         58.20693       56.83257       41.99410
C         56.92975       58.71993       42.82550
C         57.93560       57.23288       40.67967
C         56.64926       59.10725       41.51474
C         57.14439       58.36122       40.43712
O         56.85211       58.71421       39.16904
H         58.50916       56.31319       46.83893
H         59.75343       56.11232       44.24091
H         57.43618       57.84774       45.21522
H         57.37617       56.15543       44.61935
H         58.80043       55.94240       42.15871
H         56.52272       59.29729       43.64524
H         58.32329       56.65549       39.84865
H         56.03456       59.98009       41.33828
H         56.26653       59.46037       38.97372
N         60.26289       59.09828       45.72824
C         61.17353       60.25088       45.69678
C         62.61717       59.78975       45.53177
O         63.31973       60.30896       44.67532
C         60.96368       61.07855       46.98377
C         61.93557       62.25289       47.14359
C         61.53080       63.10246       48.31499
O         62.32999       63.19567       49.39443
O         60.47343       63.71320       48.29072
H         59.66207       58.96496       46.55210
H         60.92470       60.91153       44.83685
H         61.07650       60.43843       47.87968
H         59.91686       61.45562       46.95672
H         61.95165       62.88638       46.23231
H         62.95633       61.84563       47.31582
N         63.09435       58.75841       46.27413
C         64.41157       58.15345       46.05984
C         64.53136       57.63031       44.63423
O         65.53198       57.89252       43.98241
C         64.61314       57.02501       47.08755
C         64.80119       57.63539       48.48207
C         64.75963       56.63787       49.57963
O         64.75950       57.07768       50.83317
O         64.66498       55.44657       49.36291
H         62.45998       58.33463       46.96828
H         65.22500       58.89525       46.22371
H         65.50432       56.41026       46.85503
H         63.72773       56.35822       47.07385
H         63.98632       58.35565       48.69722
H         65.76828       58.17761       48.53167
N         63.52650       56.90547       44.07819
C         63.54266       56.43731       42.71309
H         63.47170       57.30071       42.01810
H         64.46014       55.84855       42.51595
H         62.65734       55.78505       42.54118
H         62.69652       56.71533       44.62721
Ca        64.24795       55.68995       52.46609
O         61.83664       54.33763       52.58886
H         61.22935       53.65856       52.20502
H         61.24465       54.98146       53.05292

Ca 1.70



