%chk=loop3.cluster106.chk
%nprocshared=48
%mem=10GB
%nosave
#b3lyp/svp scf=(tight,noincore) Test 
#IOP(5/87=12) Density=Current Pop=(MK,readradii) iop(6/33=2) iop(6/42=6)

loop3.cluster106 

   0  1 
C         52.86350       55.68382       41.64809
C         53.56694       55.62239       42.96945
O         52.89759       55.42386       43.97067
H         52.06288       56.45313       41.68444
H         53.56305       55.93883       40.82618
H         52.40591       54.69438       41.43932
N         54.93220       55.73371       43.03311
C         55.73761       55.65445       44.25910
C         55.80364       56.98249       44.99472
O         56.89798       57.44172       45.30180
C         55.30359       54.53512       45.24046
C         55.12363       53.17106       44.62723
O         54.71869       52.14940       45.40500
O         55.31526       52.98117       43.43638
H         55.44906       55.79352       42.14286
H         56.77958       55.40635       43.94980
H         54.35533       54.81347       45.74137
H         56.07353       54.45601       46.03991
N         54.66515       57.64616       45.34239
C         54.65070       58.86690       46.13341
C         55.18631       58.67465       47.55160
O         55.36062       59.66188       48.24344
C         53.22523       59.49237       46.16171
C         52.15504       58.78940       47.04024
C         51.91284       57.31090       46.71078
C         50.80487       56.67740       47.55912
N         50.95004       55.21802       47.56125
H         53.77943       57.29095       44.98788
H         55.31667       59.59121       45.61250
H         52.85733       59.56732       45.11439
H         53.31395       60.53036       46.54927
H         51.20332       59.35316       46.93628
H         52.47370       58.85204       48.10381
H         52.85402       56.77303       46.93443
H         51.63901       57.17314       45.64117
H         49.81039       56.97737       47.16454
H         50.85014       57.04234       48.60343
H         51.03409       54.84289       46.59053
H         51.81074       54.95429       48.09226
H         50.13186       54.77754       48.03176
N         55.43728       57.42764       48.05705
C         56.01843       57.23615       49.38620
C         57.15575       56.23669       49.38045
O         57.35679       55.50790       48.42277
C         54.96925       56.81874       50.42914
C         53.88594       55.98645       49.88991
O         52.63108       56.43695       50.00138
O         54.12603       54.94621       49.29907
H         55.19741       56.59202       47.50994
H         56.46405       58.17797       49.75744
H         54.47245       57.71758       50.84652
H         55.43704       56.27293       51.27123
N         57.92148       56.14984       50.50706
C         58.96664       55.16683       50.70422
C         58.44242       53.95567       51.43852
O         59.22656       53.25543       52.06509
H         57.70852       56.77497       51.29700
H         59.72984       55.65096       51.35053
H         59.47733       54.87980       49.76192
N         57.12010       53.63354       51.39657
C         56.58035       52.43648       52.00807
C         56.87939       51.25351       51.11270
O         57.56725       50.34357       51.55376
C         55.07042       52.63248       52.24511
C         54.34301       51.36494       52.57842
N         54.64291       50.61799       53.66188
O         53.45547       51.00594       51.83893
H         56.48223       54.20262       50.82470
H         57.03934       52.27176       53.00965
H         54.61531       53.03286       51.31577
H         54.90551       53.38796       53.04264
H         55.37878       50.90743       54.31765
H         54.12792       49.73941       53.83325
N         56.39061       51.20312       49.83504
C         56.62977       50.07447       48.94965
C         55.58409       48.98561       49.10454
O         54.97763       48.58748       48.12124
H         55.86951       52.01024       49.46330
H         57.63618       49.64222       49.14869
H         56.64959       50.42932       47.89628
N         55.37225       48.41868       50.32316
C         54.60879       47.20120       50.57518
C         53.14456       47.26701       50.13564
O         52.64582       46.32783       49.53487
C         55.34504       45.98839       49.97552
C         56.85373       46.10259       50.08668
C         57.51853       46.09886       51.32766
C         57.60410       46.24554       48.90774
C         58.91721       46.21351       51.37289
C         58.98958       46.36441       48.95658
C         59.65432       46.33906       50.18728
O         60.99869       46.43186       50.23646
H         55.86186       48.80812       51.13482
H         54.61701       47.07805       51.68265
H         55.08920       45.95298       48.89610
H         54.97680       45.04619       50.43640
H         56.96160       46.00499       52.25186
H         57.10951       46.27454       47.94539
H         59.43090       46.20162       52.32657
H         59.54487       46.47500       48.03415
H         61.53096       46.48851       49.42876
N         52.41456       48.37728       50.41556
C         50.97973       48.57868       50.22231
C         50.21220       47.86937       51.32650
O         49.61295       48.54413       52.15346
C         50.45928       48.30572       48.77721
C         51.33111       48.97782       47.68003
C         48.98893       48.74848       48.65213
C         51.65155       50.46151       47.89118
H         52.92404       49.15306       50.81704
H         50.80006       49.66414       50.40768
H         50.47503       47.21519       48.56457
H         50.83682       48.85169       46.69053
H         52.29955       48.44148       47.62849
H         48.87420       49.82926       48.87747
H         48.60836       48.55595       47.62627
H         48.35032       48.16878       49.35207
H         52.22103       50.60493       48.83119
H         52.30762       50.81128       47.06582
H         50.73562       51.08604       47.91020
N         50.22230       46.51220       51.43346
C         49.56538       45.80602       52.52526
C         48.07309       45.99521       52.42895
O         47.43747       46.36915       53.40511
C         49.84332       44.29076       52.45066
O         51.21477       44.03938       52.32407
H         50.72215       45.96008       50.73158
H         49.97354       46.17166       53.49645
H         49.30754       43.84757       51.58063
H         49.46972       43.81804       53.38679
H         51.29147       43.06858       52.12594
N         47.45460       45.72711       51.23886
C         46.01723       45.74085       51.01877
C         45.35941       47.09894       51.20601
O         44.14647       47.17683       51.06555
C         45.35017       44.67743       51.89875
H         48.04303       45.45115       50.43795
H         45.84373       45.43559       49.96261
H         44.29226       44.53994       51.59066
H         45.87493       43.70556       51.77425
H         45.37345       44.96351       52.97011
N         46.08452       48.22148       51.48687
C         45.45337       49.50672       51.74504
C         45.51146       50.40715       50.53821
O         46.18893       50.08838       49.57103
C         46.19873       50.20229       52.89731
H         47.11040       48.17887       51.50865
H         44.38463       49.36679       52.01708
H         47.26820       50.34910       52.61681
H         45.77095       51.20359       53.11448
H         46.16272       49.58932       53.82027
N         44.81361       51.58469       50.56437
C         44.98109       52.71545       49.64998
C         44.84669       52.44443       48.15654
O         45.06053       53.36865       47.38266
C         46.23994       53.51361       50.05606
C         47.57020       52.83238       49.75472
C         48.66061       53.48179       50.52500
O         49.04373       54.72471       50.23020
O         49.25194       52.85694       51.39163
H         44.20118       51.75234       51.37711
H         44.16405       53.43207       49.88931
H         46.16205       53.66442       51.15730
H         46.23748       54.52261       49.58552
H         47.78934       52.83947       48.66235
H         47.57452       51.79941       50.10379
N         44.44993       51.23618       47.66541
C         44.31688       51.00839       46.24328
H         43.56504       51.70688       45.81842
H         45.29492       51.16179       45.73852
H         43.98024       49.96659       46.05837
H         44.20903       50.46446       48.29914
Ca        51.06731       55.21183       50.94682
O         50.12836       56.00501       54.27953
H         49.31105       56.55025       54.40050
H         50.62027       56.11243       55.13093
O         50.82997       57.93867       52.15587
H         49.94529       58.31691       52.38744
H         51.44610       58.71230       52.18106
O         53.42352       56.06378       53.32755
H         53.29212       56.22094       54.29499
H         54.40374       56.11523       53.21402
O         51.96772       52.99233       49.98902
H         51.88529       52.28702       50.67038
H         52.93035       53.03370       49.79207
O         48.05602       56.05906       52.19751
H         47.88000       57.02385       52.31391
H         47.19993       55.60922       52.40364
O         51.68926       53.26585       53.33450
H         52.20144       53.17861       54.17689
H         51.17595       52.42185       53.26815

Ca 1.70



