%chk=loop3.cluster170.chk
%nprocshared=48
%mem=10GB
%nosave
#b3lyp/svp scf=(tight,noincore) Test 
#IOP(5/87=12) Density=Current Pop=(MK,readradii) iop(6/33=2) iop(6/42=6)

loop3.cluster170 

   0  1 
C         26.59260       70.48260       76.76456
C         25.90645       71.12203       75.60340
O         25.89169       70.56107       74.51616
H         27.46287       71.10137       77.07225
H         25.87199       70.42841       77.60632
H         26.93654       69.46032       76.50656
N         25.31037       72.32867       75.77007
C         24.61969       73.00649       74.69132
C         23.25966       72.37543       74.46133
O         22.53689       72.13401       75.42012
C         24.49595       74.51488       75.02435
C         24.12316       75.39639       73.84909
O         24.22899       76.73216       73.96652
O         23.78888       74.92003       72.77610
H         25.35958       72.78271       76.69621
H         25.25306       72.97116       73.77690
H         25.50664       74.85674       75.32854
H         23.80680       74.68742       75.88223
N         22.79312       72.24235       73.18722
C         21.39733       71.97106       72.84975
C         20.41750       72.84846       73.63339
O         19.30937       72.41426       73.91830
C         21.03589       70.48142       72.91976
C         21.84011       69.60175       71.94602
C         21.31327       68.15028       71.91302
C         21.19471       67.56975       73.33396
N         21.12283       66.11285       73.34726
H         23.41793       72.51036       72.41444
H         21.26479       72.27637       71.79113
H         19.96541       70.36875       72.64731
H         21.18957       70.13292       73.96294
H         22.90713       69.59970       72.26066
H         21.79399       70.00936       70.91056
H         22.01118       67.55333       71.28719
H         20.30923       68.10523       71.42832
H         20.27692       67.99436       73.80372
H         22.07670       67.87318       73.93665
H         20.90772       65.80583       74.32415
H         20.38424       65.75745       72.70004
H         22.05734       65.72568       73.08034
N         20.77812       74.10095       74.02676
C         19.90353       74.99185       74.76452
C         20.06188       76.41122       74.24064
O         21.18599       76.83922       74.03103
C         20.21584       74.87635       76.26653
C         19.29391       75.72985       77.08205
O         19.73062       76.26376       78.25572
O         18.17452       75.96034       76.65839
H         21.73786       74.40834       73.86992
H         18.84667       74.67928       74.62494
H         21.26827       75.14166       76.49800
H         20.04304       73.81708       76.55734
N         18.95803       77.16514       73.94583
C         19.00747       78.46028       73.27156
C         19.32602       79.65342       74.16674
O         18.51362       80.56273       74.26328
H         18.02966       76.74363       74.09572
H         17.99984       78.63894       72.83524
H         19.71728       78.40162       72.42119
N         20.50670       79.72140       74.83185
C         20.92308       80.82417       75.69313
C         21.34347       82.03026       74.88703
O         21.02735       83.15343       75.25632
C         22.18267       80.38698       76.47260
C         21.93273       79.15020       77.29541
N         22.60234       78.00321       77.02891
O         21.11545       79.18099       78.20068
H         21.15627       78.94359       74.73437
H         20.13561       81.07952       76.43468
H         22.52431       81.20894       77.13845
H         22.99761       80.17682       75.74524
H         23.28893       77.96164       76.26146
H         22.42576       77.15334       77.58319
N         22.15677       81.85082       73.80884
C         22.82032       82.92947       73.11184
C         24.01218       83.40816       73.89831
O         24.66260       82.61271       74.56595
H         22.35764       80.89188       73.49180
H         22.11362       83.75002       72.85464
H         23.23517       82.52614       72.16728
N         24.35102       84.72518       73.85539
C         25.45045       85.34948       74.59094
C         25.25269       85.34838       76.11420
O         26.04122       85.99443       76.78884
C         26.83834       84.80303       74.17053
C         26.98990       84.75967       72.66511
C         26.70477       83.57458       71.96452
C         27.39119       85.90015       71.94960
C         26.79615       83.53662       70.57059
C         27.48866       85.85752       70.55325
C         27.18209       84.67663       69.85990
O         27.25324       84.62944       68.51383
H         23.79987       85.33763       73.23708
H         25.43666       86.41979       74.28619
H         27.00527       83.78952       74.58968
H         27.63362       85.45747       74.59627
H         26.39595       82.68524       72.49766
H         27.62705       86.81824       72.47240
H         26.56002       82.62164       70.04123
H         27.79541       86.74214       70.00948
H         27.50555       85.40291       67.98962
N         24.22081       84.66171       76.71899
C         23.83257       84.73089       78.12592
C         22.99563       85.98994       78.37173
O         21.88807       85.87623       78.87624
C         24.95577       84.46166       79.18069
C         25.71413       83.11828       79.02337
C         24.31499       84.42081       80.57646
C         26.73351       83.08711       77.89754
H         23.60675       84.07832       76.15283
H         23.10636       83.89607       78.27926
H         25.69682       85.28758       79.18344
H         25.01038       82.26030       78.94362
H         26.32502       82.96924       79.94171
H         23.95806       85.42615       80.82869
H         23.48226       83.68017       80.61299
H         25.05307       84.14842       81.35856
H         27.41312       83.96430       77.97674
H         27.34709       82.16809       78.00407
H         26.24135       83.06093       76.91188
N         23.43345       87.21447       77.97089
C         22.63880       88.43480       78.07369
C         22.38633       88.80172       79.53556
O         21.38432       89.43797       79.83664
C         23.39179       89.56537       77.34938
O         23.71984       89.15681       76.04315
H         24.35050       87.28680       77.53608
H         21.67180       88.26863       77.54147
H         24.32385       89.77240       77.92744
H         22.77162       90.48191       77.29011
H         24.57474       89.60342       75.80348
N         23.25503       88.35479       80.49768
C         23.10429       88.50675       81.94076
C         21.78651       87.94828       82.41188
O         21.01156       88.64570       83.05430
C         23.40691       89.93409       82.38839
H         24.07690       87.82349       80.19092
H         23.88113       87.87652       82.42009
H         23.32244       90.00744       83.49522
H         24.46186       90.15307       82.11533
H         22.73892       90.67702       81.90928
N         21.46658       86.66536       82.08855
C         20.16736       86.09206       82.35168
C         20.22741       84.82188       83.16213
O         21.30012       84.33191       83.49609
C         19.49374       85.84034       81.00551
H         22.13437       86.10822       81.55062
H         19.54279       86.80225       82.92994
H         20.05676       85.08015       80.42272
H         18.45221       85.49137       81.13636
H         19.47714       86.79228       80.43308
N         19.04488       84.28047       83.57086
C         18.89838       83.10576       84.41258
C         19.71717       83.23124       85.69747
O         20.14934       82.21876       86.23261
C         19.23713       81.81475       83.63291
C         18.64657       81.77059       82.20614
C         19.04059       80.48733       81.50866
O         20.22326       80.23945       81.34954
O         18.12856       79.62507       81.01352
H         18.17721       84.75976       83.29390
H         17.82035       83.04627       84.68356
H         18.85074       80.95305       84.22351
H         20.33971       81.72477       83.54567
H         19.08977       82.59837       81.60711
H         17.54522       81.92462       82.22782
N         20.06440       84.46279       86.17905
C         21.01733       84.64861       87.25343
H         21.89369       85.19823       86.84537
H         20.56330       85.25287       88.06394
H         21.38557       83.68968       87.67292
H         19.69158       85.31196       85.73039
Ca        18.97089       77.96559       79.64221
O         16.54604       77.66865       78.74521
H         15.74993       77.10466       78.85032
H         17.09235       77.16458       78.10988
O         21.45091       76.94290       81.08301
H         21.20841       76.18641       81.67219
H         22.34839       77.21403       81.39764
O         18.70658       75.85399       81.69648
H         17.73199       75.82489       81.86062
H         19.06807       75.06081       82.16610
O         18.09473       79.94651       77.69417
H         17.24464       80.05493       78.18789
H         17.92452       80.38255       76.82435

Ca 1.70



