%chk=loop2.cluster234.chk
%nprocshared=48
%mem=10GB
%nosave
#b3lyp/svp scf=(tight,noincore) Test 
#IOP(5/87=12) Density=Current Pop=(MK,readradii) iop(6/33=2) iop(6/42=6)

loop2.cluster234 

   -2  1 
C         64.42757      109.08798       24.06040
C         63.80190      110.25208       24.76265
O         64.45238      110.86909       25.59534
H         65.45875      108.90897       24.43510
H         63.82034      108.17173       24.20470
H         64.48492      109.32887       22.97761
N         62.52732      110.62886       24.45641
C         61.94942      111.86285       24.97147
C         60.43954      111.87209       24.87364
O         59.78132      112.01282       25.89735
C         62.52418      113.04668       24.17184
C         61.95480      114.36045       24.62697
O         62.10240      114.75380       25.90564
O         61.34489      115.06831       23.84134
H         61.99646      110.07307       23.76863
H         62.21383      111.99041       26.04260
H         62.30005      112.90169       23.09089
H         63.62619      113.07233       24.28396
N         59.82194      111.79998       23.65657
C         58.39111      112.00880       23.47208
C         57.54534      110.95665       24.18490
O         56.35880      111.16355       24.38860
C         58.04312      113.45593       23.85581
H         60.39640      111.64740       22.81525
H         58.16415      111.92132       22.38829
H         58.15160      113.64219       24.94324
H         58.73188      114.14427       23.31532
H         57.00759      113.70332       23.54634
N         58.11976      109.77687       24.55710
C         57.43863      108.67357       25.21757
C         56.79989      109.10470       26.51507
O         55.63281      108.81924       26.76426
C         56.53153      107.87828       24.26298
C         57.25577      107.57634       22.97571
O         56.77684      107.92648       21.90939
O         58.45265      106.95617       22.99690
H         59.11512      109.62476       24.35535
H         58.24123      107.95694       25.50528
H         55.59269      108.42703       24.04161
H         56.26919      106.91543       24.75908
N         57.56993      109.73712       27.43481
C         57.16282      109.96903       28.80128
C         57.81306      108.90337       29.64302
O         58.94801      108.53270       29.36228
H         58.55721      109.92634       27.19586
H         56.05731      109.94010       28.93151
H         57.51624      110.97550       29.11130
N         57.14164      108.33008       30.68267
C         57.66724      107.20791       31.46065
C         58.95290      107.53966       32.22798
O         59.52333      106.65101       32.84103
C         57.82997      105.96701       30.55075
C         56.53995      105.68437       29.81249
N         56.49501      105.73491       28.45990
O         55.52401      105.43116       30.44309
H         56.19905      108.68117       30.91573
H         56.90969      106.93566       32.22814
H         58.09332      105.07857       31.16478
H         58.65424      106.12377       29.82530
H         57.33841      105.95941       27.91241
H         55.60890      105.56334       27.96162
N         59.42217      108.81923       32.28944
C         60.60364      109.20821       33.03977
C         61.89502      108.74101       32.41658
O         62.81141      108.37367       33.14118
H         58.90147      109.57744       31.83312
H         60.52021      108.92782       34.11127
H         60.65372      110.31870       32.99865
N         62.06783      108.82165       31.06910
C         63.37242      108.71046       30.42076
C         63.66842      107.34117       29.84956
O         62.80761      106.46987       29.82496
C         63.51126      109.77516       29.29656
C         62.42215      109.66093       28.21518
O         63.47986      111.06216       29.85619
H         61.25434      109.09585       30.50722
H         64.17198      108.89302       31.17475
H         64.49202      109.61491       28.78909
H         64.16821      111.60242       29.38441
H         62.38512      108.64141       27.77929
H         61.41437      109.93069       28.58834
H         62.64773      110.37080       27.41046
N         64.92804      107.09631       29.38038
C         65.34202      105.83625       28.77135
C         64.64106      105.63928       27.43820
O         63.96294      106.55249       26.98029
C         66.90371      105.75570       28.68099
C         67.50523      106.80994       27.69868
C         67.49037      105.87440       30.10538
C         69.01922      107.01876       27.83388
H         65.62838      107.84219       29.49799
H         65.01270      105.01404       29.44498
H         67.18927      104.74308       28.31909
H         67.05296      107.80895       27.85254
H         67.26882      106.49554       26.65851
H         66.98678      105.16299       30.79365
H         68.56896      105.61407       30.10481
H         67.38057      106.90040       30.51298
H         69.25492      107.46050       28.82767
H         69.57770      106.06895       27.71222
H         69.36608      107.74945       27.07280
N         64.72422      104.44998       26.77448
C         63.90689      104.16451       25.60166
C         63.12545      102.89126       25.85371
O         63.71507      101.82323       25.82428
C         64.76987      104.02519       24.33367
C         63.91971      103.82714       23.09973
O         62.70020      103.80861       23.17628
O         64.48945      103.71547       21.89152
H         65.32683      103.70239       27.15302
H         63.19741      105.00420       25.42411
H         65.47951      103.17628       24.45001
H         65.36428      104.95418       24.19663
N         61.78144      102.92687       26.06213
C         60.98257      101.73752       26.33297
C         60.07509      101.95440       27.55998
O         58.87186      102.07886       27.38921
C         60.26589      101.32603       25.01253
C         59.00639      100.50814       25.20035
C         57.82797      100.90990       24.54608
C         58.96966       99.39823       26.06519
C         56.63285      100.22309       24.75762
C         57.76162       98.72797       26.29108
C         56.59592       99.13981       25.63710
H         61.29091      103.83238       25.98855
H         61.60247      100.84931       26.57900
H         60.99934      100.75510       24.39832
H         60.00726      102.23314       24.42443
H         57.83573      101.76082       23.87531
H         59.85971       99.08303       26.59519
H         55.73228      100.54217       24.24905
H         57.72519       97.89696       26.98300
H         55.66197       98.62343       25.81496
N         60.56781      101.94073       28.84665
C         61.97067      101.93677       29.20755
C         62.56796      100.54076       29.14436
O         62.04453       99.63501       29.78226
C         61.96956      102.43531       30.67398
C         60.53698      102.92339       30.92320
C         59.71594      102.04624       30.00647
H         62.50555      102.69431       28.59617
H         62.16079      101.59064       31.37021
H         62.72469      103.22760       30.87478
H         60.23052      102.88113       31.99273
H         60.44013      103.95963       30.54402
H         59.65831      101.02930       30.46081
H         58.68192      102.40478       29.81685
N         63.67513      100.30111       28.40068
C         64.32179       99.00118       28.32018
C         65.82202       99.19698       28.45311
O         66.39123       99.98201       27.70310
C         63.98866       98.31322       26.98265
C         64.54259       96.87536       26.97401
C         64.39336       96.22900       25.63145
O         63.17143       95.95165       25.14018
O         65.38699       95.93948       24.98360
H         64.08670      101.08018       27.88388
H         63.94160       98.32648       29.11838
H         64.41955       98.90282       26.14386
H         62.88425       98.26840       26.84570
H         64.02755       96.25713       27.74509
H         65.62294       96.89759       27.22428
N         66.52983       98.49083       29.37466
C         67.96364       98.62623       29.53831
H         68.41511       99.35131       28.82702
H         68.17495       98.97076       30.57059
H         68.44788       97.63987       29.37971
H         66.03615       97.81631       29.97661
Ca        63.02801      103.74335       20.17341
O         62.58840      101.03775       21.32065
H         61.72777      100.60820       21.08755
H         62.78299      100.72718       22.24003
O         61.17038      102.77631       18.14344
H         60.80550      101.85620       18.14419
H         60.37397      103.36271       18.09735
O         64.77396      101.99929       19.03046
H         65.21696      102.18694       18.16618
H         65.00207      101.06137       19.24506
O         60.04089      102.98233       21.09912
H         59.73893      102.04460       21.19661
H         59.42626      103.50133       21.67565

Ca 1.70



