%chk=loop2.cluster97.chk
%nprocshared=48
%mem=10GB
%nosave
#b3lyp/svp scf=(tight,noincore) Test 
#IOP(5/87=12) Density=Current Pop=(MK,readradii) iop(6/33=2) iop(6/42=6)

loop2.cluster97 

   -2  1 
C         63.14925       35.16396        6.33041
C         62.52697       35.54350        5.02381
O         61.73104       34.78014        4.50974
H         64.09285       35.71751        6.50880
H         62.42294       35.40129        7.13574
H         63.34505       34.07793        6.36914
N         62.74699       36.77792        4.49249
C         62.00966       37.28211        3.33600
C         62.29931       36.54016        2.03408
O         61.42382       36.51855        1.18230
C         62.24843       38.79249        3.18459
C         61.36306       39.41925        2.14490
O         61.85399       40.02511        1.20666
O         60.02308       39.33264        2.25741
H         63.37549       37.41927        4.99939
H         60.93064       37.16099        3.56993
H         63.31975       38.97378        2.94910
H         62.01403       39.28027        4.15578
N         63.48975       35.89535        1.81190
C         63.78067       35.11667        0.59707
C         62.88989       33.87084        0.45522
O         62.97071       33.19010       -0.55801
C         63.70835       36.01016       -0.65748
H         64.22616       35.95356        2.52984
H         64.83192       34.75945        0.66027
H         64.33563       36.91681       -0.51710
H         64.09967       35.46144       -1.54141
H         62.67218       36.32729       -0.89281
N         62.00592       33.53063        1.44126
C         61.02668       32.45144        1.38252
C         60.13226       32.61322        0.16936
O         59.81563       31.63433       -0.49387
C         61.65929       31.04671        1.46013
C         62.58404       30.88405        2.62900
O         63.60137       31.55418        2.70443
O         62.32113       29.96065        3.57155
H         61.97688       34.09732        2.28640
H         60.38733       32.57173        2.28325
H         62.23017       30.82692        0.53589
H         60.83558       30.30305        1.55424
N         59.74517       33.85826       -0.22011
C         59.01491       34.10350       -1.44432
C         57.62223       33.54152       -1.43180
O         57.22124       32.87753       -0.49021
H         60.05073       34.67455        0.32431
H         59.57253       33.66670       -2.30209
H         58.94597       35.20109       -1.60187
N         56.81910       33.77443       -2.49690
C         55.47973       33.22654       -2.63149
C         54.57004       33.72700       -1.50975
O         53.90778       32.92914       -0.86096
C         55.57852       31.67703       -2.72396
C         54.64848       31.07222       -3.74355
N         53.37979       30.73428       -3.43013
O         55.06699       30.85629       -4.87227
H         57.18861       34.34350       -3.27503
H         55.10427       33.61651       -3.60497
H         55.55187       31.16152       -1.73751
H         56.59280       31.44080       -3.11488
H         53.01507       30.87409       -2.47881
H         52.77413       30.30266       -4.14520
N         54.50114       35.06031       -1.22189
C         53.64533       35.58396       -0.16294
C         54.22429       35.47253        1.24600
O         53.55083       35.87828        2.18258
H         55.04503       35.72825       -1.79120
H         52.63506       35.13071       -0.24345
H         53.51988       36.67723       -0.32857
N         55.50593       35.05457        1.46060
C         56.19832       35.24580        2.73764
C         55.63419       34.46361        3.91190
O         55.26417       33.30714        3.76288
C         57.71107       34.92638        2.59123
C         58.55071       35.55393        3.69825
O         57.95347       33.54368        2.61025
H         56.06230       34.74988        0.65426
H         56.12736       36.33515        2.95882
H         58.09022       35.38022        1.64807
H         57.55943       33.16099        1.79446
H         59.60844       35.33250        3.47448
H         58.41140       36.65560        3.72336
H         58.31345       35.13214        4.69335
N         55.69197       35.02246        5.15452
C         55.37051       34.30547        6.39080
C         56.35684       33.16011        6.62686
O         57.38164       33.11657        5.96208
C         55.37324       35.33553        7.57980
C         54.76427       34.75893        8.87979
C         56.77549       35.94912        7.83888
C         54.48801       35.82610        9.93650
H         56.00078       36.00217        5.21430
H         54.34699       33.88969        6.27084
H         54.69170       36.15531        7.26140
H         55.42682       34.00520        9.34805
H         53.78823       34.29296        8.62146
H         56.73416       36.73109        8.62184
H         57.50124       35.17331        8.15721
H         57.18873       36.45507        6.94494
H         55.43173       36.24629       10.33826
H         53.86967       36.64141        9.50561
H         53.93621       35.36792       10.78308
N         56.13890       32.22516        7.60075
C         57.16019       31.25021        7.97401
C         56.58994       29.84912        8.22566
O         57.30695       28.97125        8.68360
C         57.95166       31.85100        9.15023
C         59.33705       31.28955        9.21555
O         60.06159       31.37770        8.23814
O         59.81069       30.74871       10.35087
H         55.28286       32.27736        8.16763
H         57.87190       31.13568        7.12823
H         57.39485       31.76684       10.10612
H         58.10510       32.93361        8.94633
N         55.32252       29.55991        7.82530
C         54.72821       28.22951        7.81532
C         54.35818       27.61439        9.15964
O         54.57950       26.41658        9.29601
C         53.44354       28.29978        6.94547
C         52.69206       26.99914        6.77120
C         53.32172       25.86851        6.22300
C         51.33280       26.92505        7.12678
C         52.60008       24.68465        6.03477
C         50.61519       25.74301        6.92816
C         51.24760       24.62374        6.38265
H         54.78246       30.30362        7.36516
H         55.42216       27.53739        7.28798
H         53.73429       28.65432        5.93335
H         52.75735       29.05989        7.37848
H         54.36512       25.90424        5.93883
H         50.82552       27.78693        7.54287
H         53.08740       23.81601        5.61171
H         49.56617       25.69766        7.19158
H         50.68831       23.71044        6.22629
N         53.58703       28.25190       10.09704
C         53.36967       29.68253       10.20615
C         54.25779       30.27300       11.31309
O         54.15391       31.46498       11.57307
C         51.90792       29.72898       10.65895
C         51.82169       28.53897       11.62195
C         52.69997       27.48432       10.94918
H         53.50759       30.25401        9.27447
H         51.57735       30.69607       11.10042
H         51.27503       29.50708        9.77309
H         52.30794       28.83707       12.57038
H         50.78676       28.19299       11.83987
H         53.22098       26.82008       11.67195
H         52.05662       26.87056       10.27877
N         55.07596       29.47914       12.07335
C         55.71377       29.96264       13.29215
C         56.84735       30.91868       13.00376
O         57.83770       30.52091       12.40732
C         56.18699       28.77717       14.16833
C         55.00672       27.90667       14.65379
C         54.01454       28.71323       15.45027
O         54.41102       29.37069       16.55638
O         52.85456       28.79932       15.08055
H         55.14221       28.47368       11.86480
H         54.95114       30.50698       13.88657
H         56.71664       29.16739       15.06479
H         56.90421       28.14190       13.60064
H         55.39581       27.09000       15.29706
H         54.49286       27.43477       13.78900
N         56.75632       32.21458       13.42204
C         57.79061       33.20222       13.19795
H         58.68829       32.77951       12.70195
H         57.37856       34.01324       12.56191
H         58.09690       33.63833       14.17295
H         55.90555       32.52444       13.91520
Ca        61.69470       30.11170        6.34719
O         60.27172       31.99144        4.78290
H         59.65916       32.73769        4.98739
H         61.16902       32.40572        4.78891
O         63.91745       31.72724        6.01807
H         63.46003       31.91212        5.16198
H         64.83964       31.48300        5.76390
O         59.43964       28.97432        5.31260
H         58.78326       28.40242        5.78191
H         58.98141       29.28081        4.49133
O         62.90267       31.15795        8.70059
H         63.70700       31.72294        8.80165
H         62.24394       31.56703        9.31276
O         60.92584       28.06080        8.03428
H         60.52706       27.16490        7.90541
H         60.97252       28.18605        9.01459
O         63.93816       28.44864        6.22112
H         64.55570       28.74586        5.50694
H         63.87150       27.46787        6.10895

Ca 1.70



