%chk=loop3.cluster98.chk
%nprocshared=48
%mem=10GB
%nosave
#b3lyp/svp scf=(tight,noincore) Test 
#IOP(5/87=12) Density=Current Pop=(MK,readradii) iop(6/33=2) iop(6/42=6)

loop3.cluster98 

   0  1 
C         50.88901       18.23639        4.13758
C         50.76415       19.20429        2.99078
O         51.30976       20.29481        3.06145
H         51.55280       18.63173        4.93686
H         49.89605       17.99405        4.56596
H         51.35018       17.29874        3.75401
N         50.11636       18.80936        1.85552
C         50.14960       19.53561        0.58042
C         49.25053       20.75224        0.47315
O         49.34307       21.45404       -0.52939
C         51.59775       19.81157        0.11192
C         52.41618       18.55136       -0.02708
O         51.88256       17.34091        0.23693
O         53.57320       18.62486       -0.40487
H         49.69092       17.87085        1.84970
H         49.71629       18.86111       -0.18883
H         52.11030       20.51268        0.80106
H         51.56935       20.29320       -0.88919
N         48.25888       20.99835        1.36853
C         47.21541       21.97779        1.09730
C         47.52090       23.28211        1.77567
O         47.30363       24.32811        1.18523
C         45.83314       21.42328        1.52981
C         44.68682       22.37585        1.13985
C         43.29776       21.80821        1.47393
C         42.16204       22.77394        1.07733
N         42.10832       23.01343       -0.36804
H         48.15283       20.38078        2.19027
H         47.12647       22.17182        0.00271
H         45.81316       21.23505        2.62601
H         45.67179       20.45632        1.00416
H         44.75906       22.54635        0.04726
H         44.80454       23.34576        1.66893
H         43.23405       21.63139        2.57036
H         43.14617       20.83530        0.95718
H         42.28523       23.74192        1.61217
H         41.19411       22.32965        1.39978
H         42.96134       23.51631       -0.69872
H         42.00574       22.10735       -0.88019
H         41.28456       23.61933       -0.58410
N         47.92399       23.27913        3.07330
C         47.90704       24.48654        3.86648
C         49.10105       24.53914        4.81167
O         49.42396       23.54152        5.43556
C         46.59399       24.43734        4.66922
C         46.32167       25.72380        5.38271
O         45.44867       25.77160        6.23199
O         47.04769       26.81763        5.06161
H         48.05534       22.38082        3.55463
H         47.87825       25.39467        3.22373
H         46.65171       23.59105        5.38780
H         45.73444       24.25270        3.98631
N         49.70318       25.73315        5.06701
C         50.69792       25.87671        6.11315
C         50.83116       27.32205        6.51220
O         49.83185       27.94226        6.83145
H         49.35423       26.57106        4.59845
H         51.66231       25.42326        5.80000
H         50.33944       25.35794        7.02753
N         52.05387       27.90259        6.59541
C         52.24013       29.26058        7.08931
C         52.94832       30.11827        6.03447
O         53.33535       31.23814        6.34104
C         52.97502       29.17236        8.44723
C         52.16957       28.35773        9.45152
N         51.66806       28.92128       10.57212
O         51.96797       27.17107        9.24440
H         52.89238       27.34731        6.36978
H         51.27627       29.76658        7.31362
H         53.13521       30.20272        8.83442
H         53.95664       28.67465        8.32501
H         51.83179       29.90474       10.78470
H         51.10280       28.36529       11.22960
N         53.07205       29.68023        4.73954
C         53.70333       30.44582        3.67179
C         55.19324       30.20730        3.68371
O         55.61023       29.05723        3.68673
H         52.64998       28.78200        4.46944
H         53.42941       31.52276        3.74607
H         53.31633       30.07504        2.70098
N         56.05545       31.26111        3.77065
C         57.48611       31.16806        4.09535
C         57.69143       30.92409        5.59495
O         58.70935       31.34313        6.12030
C         58.30256       30.22423        3.19426
C         59.79244       30.50165        3.24912
C         60.64526       29.73085        4.05803
C         60.34306       31.51776        2.44626
C         62.02644       29.96829        4.05501
C         61.72348       31.74284        2.43488
C         62.57029       30.96488        3.23616
O         63.90513       31.16225        3.21908
H         55.65966       32.21098        3.69185
H         57.86209       32.20236        3.91611
H         57.98573       30.34533        2.13566
H         58.09412       29.17092        3.47502
H         60.24224       28.94900        4.68825
H         59.70429       32.11897        1.81141
H         62.67734       29.36896        4.67950
H         62.13573       32.51463        1.79601
H         64.31529       31.82400        2.64298
N         56.68415       30.38826        6.35545
C         56.51390       30.53183        7.78762
C         56.42451       32.01381        8.10207
O         55.32368       32.53913        8.11973
C         57.40034       29.66669        8.73452
C         57.42797       28.16493        8.35150
C         56.81308       29.71505       10.16010
C         58.46887       27.82112        7.29897
H         55.87307       29.98668        5.89531
H         55.49368       30.14321        7.96556
H         58.43397       30.06959        8.77208
H         56.41094       27.82557        8.04968
H         57.72367       27.56052        9.23858
H         56.62581       30.72389       10.50833
H         55.83781       29.18559       10.21442
H         57.52269       29.25373       10.87816
H         59.47466       28.09292        7.68803
H         58.45083       26.72379        7.12729
H         58.28519       28.33829        6.34207
N         57.54595       32.76991        8.27886
C         57.50516       34.21603        8.51282
C         56.82018       34.59421        9.83241
O         56.49921       35.75741       10.02659
C         58.93555       34.76730        8.48012
O         59.47171       34.59079        7.19515
H         58.46156       32.30558        8.23247
H         56.92639       34.68393        7.68225
H         59.55622       34.20931        9.21771
H         58.92518       35.84702        8.74319
H         60.22436       35.23217        7.11167
N         56.52894       33.63842       10.75583
C         55.73433       33.81983       11.96491
C         54.35372       34.39227       11.66373
O         53.80986       35.13720       12.46763
C         56.50693       34.55546       13.05855
H         56.85817       32.69881       10.57385
H         55.55786       32.79681       12.36911
H         55.91002       34.55927       13.99609
H         57.45404       34.00991       13.26534
H         56.74095       35.59656       12.76142
N         53.69630       33.99114       10.54137
C         52.34478       34.39451       10.18011
C         51.42081       33.22415       10.37813
O         51.87070       32.09879       10.26970
C         52.30882       34.76950        8.69303
H         54.16168       33.31611        9.93102
H         51.99247       35.24625       10.80312
H         51.26881       34.99062        8.36852
H         52.94965       35.64994        8.48908
H         52.67864       33.91500        8.07964
N         50.10214       33.41774       10.67908
C         49.13390       32.33107       10.85403
C         49.50462       31.36018       11.98207
O         48.87504       30.31552       12.09238
C         48.92641       31.54314        9.54196
C         48.73444       32.43237        8.30432
C         48.49741       31.53051        7.13706
O         49.41225       31.28900        6.37141
O         47.35745       30.81843        7.06659
H         49.75505       34.38448       10.76250
H         48.14612       32.78322       11.09035
H         48.03042       30.89163        9.67140
H         49.79848       30.87980        9.34916
H         49.67573       32.99896        8.13909
H         47.89829       33.15523        8.41562
N         50.53760       31.61926       12.83620
C         51.00418       30.64275       13.79658
H         51.87614       31.05500       14.34775
H         50.20609       30.37547       14.51872
H         51.34408       29.73043       13.26342
H         51.02991       32.52034       12.79734
Ca        47.36129       28.87049        5.93333
O         45.79978       31.01767        4.55717
H         45.46028       31.56403        3.80565
H         45.22763       31.26199        5.32631
O         49.62285       28.56906        3.33023
H         50.51971       28.15754        3.25501
H         49.13590       28.26049        2.52589
O         46.34409       28.49992        2.92986
H         46.23290       29.32095        2.38915
H         46.33146       27.76031        2.27199
O         44.64266       28.83319        6.31703
H         44.50872       27.88855        6.07345
H         43.80159       29.08431        6.76680
O         47.36604       28.21167        8.49124
H         46.50741       27.71996        8.47727
H         48.05388       27.52185        8.65982
O         48.79979       31.14360        3.61576
H         49.62349       31.52170        4.01262
H         48.10766       31.82986        3.77853

Ca 1.70



