%chk=loop1.cluster63.chk
%nprocshared=48
%mem=10GB
%nosave
#b3lyp/svp scf=(tight,noincore) Test 
#IOP(5/87=12) Density=Current Pop=(MK,readradii) iop(6/33=2) iop(6/42=6)

loop1.cluster63 

   0  1 
C         66.25260       48.59959       21.72222
C         67.26865       48.24520       20.68575
O         67.19635       47.16888       20.11919
H         65.35673       47.95045       21.63633
H         66.71146       48.45797       22.72400
H         65.95216       49.66184       21.61014
N         68.25175       49.13161       20.38028
C         69.35206       48.84067       19.47278
C         70.37477       48.00185       20.21239
O         71.35133       48.53096       20.72717
C         69.91038       50.17302       18.93636
C         71.18929       50.02031       18.17796
O         72.24523       50.77086       18.52901
O         71.29001       49.21676       17.26824
H         68.22844       50.05515       20.83918
H         69.00221       48.28540       18.57151
H         70.10672       50.88060       19.76711
H         69.13834       50.62707       18.28059
N         70.16545       46.66768       20.34984
C         71.04986       45.79840       21.09812
C         72.38678       45.65614       20.39259
O         73.40775       45.94723       20.99936
C         70.37709       44.42980       21.31415
C         69.12721       44.54167       22.22012
C         68.54057       43.14699       22.46305
C         67.49632       43.06650       23.59012
N         66.37059       43.98474       23.41454
H         69.33108       46.25364       19.92086
H         71.21821       46.22710       22.11128
H         71.10566       43.76993       21.83226
H         70.10956       43.96415       20.33898
H         68.34673       45.19339       21.76523
H         69.43229       44.99228       23.18838
H         69.35940       42.45734       22.76036
H         68.10414       42.77890       21.50877
H         67.97902       43.26522       24.57369
H         67.12307       42.01841       23.60518
H         65.57802       43.66004       24.01606
H         66.64602       44.94379       23.72864
H         66.05306       44.00952       22.41962
N         72.45887       45.19916       19.10643
C         73.74059       45.01482       18.41966
C         74.49805       46.31997       18.14597
O         75.66302       46.24651       17.78075
C         73.58432       44.08180       17.19623
C         72.58799       44.50422       16.15055
O         72.26949       43.71387       15.27569
O         72.01405       45.72095       16.18590
H         71.58590       44.92934       18.62974
H         74.39566       44.43989       19.11191
H         73.22975       43.10901       17.60255
H         74.56987       43.89805       16.71349
N         73.94983       47.54235       18.41566
C         74.76628       48.75049       18.50213
C         75.14798       49.40083       17.19116
O         75.80610       50.43350       17.22449
H         72.97210       47.60325       18.72849
H         75.66998       48.53457       19.10678
H         74.19379       49.50747       19.07010
N         74.73727       48.89863       15.99748
C         74.98850       49.57061       14.71939
C         74.32471       50.95986       14.60029
O         74.54456       51.62046       13.59664
C         74.60104       48.63577       13.53630
C         73.19666       48.10799       13.58219
O         72.41391       48.42173       14.62192
O         72.78887       47.36821       12.70302
H         74.23086       48.00405       16.00270
H         76.08088       49.74727       14.62334
H         75.27268       47.75288       13.56400
H         74.75381       49.16567       12.57246
N         73.51221       51.46437       15.57986
C         72.91490       52.79316       15.51150
C         71.45802       52.73681       15.12148
O         70.85869       53.79396       14.96657
H         73.26917       50.88592       16.38340
H         73.43615       53.42613       14.76229
H         73.02696       53.30083       16.49603
N         70.82599       51.54641       14.89613
C         69.46998       51.45733       14.38588
C         68.51781       50.79038       15.41831
O         68.88811       49.56451       16.00077
C         69.46861       50.84012       12.95184
C         70.21815       51.73597       11.94708
O         70.00185       49.54806       12.91553
H         71.33305       50.66635       15.04346
H         69.04018       52.47342       14.25227
H         68.42241       50.77341       12.58859
H         70.98709       49.62988       12.99203
H         69.74295       52.73680       11.89528
H         71.28422       51.86132       12.23797
H         70.18834       51.27622       10.93582
N         67.15551       50.74095       14.89567
C         66.19144       49.86011       15.57607
C         65.41787       49.21829       14.46477
O         64.79433       49.91888       13.67609
C         65.25911       50.60042       16.57739
C         66.06863       51.24144       17.73243
C         64.22723       49.59849       17.15011
C         65.21461       52.13594       18.63614
H         66.77065       51.68903       14.67867
H         66.69529       49.05408       16.14995
H         64.72346       51.40054       16.02115
H         66.86973       51.88659       17.31740
H         66.54705       50.44516       18.34526
H         64.74240       48.79226       17.71857
H         63.49026       50.08980       17.81150
H         63.63716       49.12809       16.34057
H         64.77215       52.96202       18.03915
H         64.40158       51.57359       19.13598
H         65.85112       52.57496       19.43194
N         65.42692       47.86989       14.33105
C         64.71155       47.18312       13.28161
C         63.32909       46.84185       13.76398
O         63.01884       47.06861       14.92524
C         65.47009       45.88918       12.87239
C         66.89412       46.17899       12.41270
O         65.53562       45.01325       13.96296
H         65.89707       47.30779       15.04404
H         64.61613       47.84725       12.39443
H         64.90471       45.40881       12.04468
H         66.00821       44.18773       13.68235
H         67.34726       45.23389       12.04169
H         66.90524       46.93337       11.60464
H         67.49514       46.53765       13.27448
N         62.42765       46.28493       12.92206
C         61.14631       45.77463       13.38617
C         61.32382       44.51139       14.23313
O         60.39743       44.12898       14.92819
C         60.21728       45.48441       12.18619
C         59.80664       46.79091       11.50228
O         60.85889       44.66400       11.23916
H         62.68359       46.19767       11.92519
H         60.65998       46.54703       14.02817
H         59.27816       45.00214       12.53800
H         60.84734       43.73688       11.58841
H         59.10399       46.57310       10.67184
H         59.29433       47.45589       12.23076
H         60.68848       47.32700       11.09090
N         62.48024       43.78844       14.17009
C         62.69592       42.55690       14.92685
C         63.19429       42.88988       16.34336
O         62.84249       42.19965       17.29046
C         63.68046       41.66976       14.12365
C         63.81813       40.25661       14.69830
C         64.92002       39.45743       13.98654
C         65.08384       38.08032       14.64845
N         66.32947       37.43321       14.23846
H         63.21055       44.07719       13.50840
H         61.74374       41.98463       14.97908
H         64.67083       42.16998       14.08392
H         63.30537       41.56638       13.07800
H         62.84320       39.72414       14.62281
H         64.10411       40.33936       15.76575
H         65.86899       40.02552       14.08904
H         64.70314       39.33118       12.89989
H         64.20936       37.44206       14.38943
H         65.11223       38.19740       15.75421
H         66.40747       37.38747       13.19761
H         67.13988       37.96812       14.63043
H         66.35507       36.46533       14.63356
N         64.00413       43.96828       16.54478
C         64.44452       44.48286       17.84142
C         63.27863       45.12014       18.57364
O         63.12090       44.89480       19.76432
C         65.55174       45.55415       17.62171
C         66.89310       44.88636       17.24163
C         68.00101       45.85109       16.91061
O         67.88500       46.63014       15.98474
O         69.16781       45.79334       17.57345
H         64.26212       44.51471       15.72494
H         64.89186       43.68622       18.47699
H         65.71015       46.13491       18.54830
H         65.21381       46.27299       16.84901
H         66.74791       44.22998       16.36175
H         67.22543       44.26011       18.10002
N         62.43593       45.95944       17.91352
C         61.32441       46.62799       18.55001
H         60.42681       45.97720       18.51647
H         61.57225       46.91814       19.59195
H         61.09782       47.56079       17.98801
H         62.55252       46.08277       16.90769
Ca        70.26462       48.08399       15.01512
O         69.97051       45.86420       13.16605
H         70.01296       45.57441       12.22142
H         70.91223       46.01252       13.42276

Ca 1.70



