%chk=loop2.cluster187.chk
%nprocshared=48
%mem=10GB
%nosave
#b3lyp/svp scf=(tight,noincore) Test 
#IOP(5/87=12) Density=Current Pop=(MK,readradii) iop(6/33=2) iop(6/42=6)

loop2.cluster187 

   -2  1 
C         61.37865       58.24483       10.42257
C         60.07904       58.50213       11.09908
O         60.05416       59.19642       12.10577
H         62.10495       57.82903       11.14775
H         61.24916       57.53286        9.58078
H         61.74706       59.21034       10.01875
N         58.92937       58.03154       10.55323
C         57.64483       58.39000       11.10204
C         57.39156       57.62536       12.39274
O         57.22019       56.41468       12.37096
C         56.57479       58.16874       10.04677
C         55.24498       58.62801       10.49038
O         54.30944       58.44530        9.75706
O         55.05881       59.23663       11.67664
H         58.97042       57.50681        9.66566
H         57.65525       59.48595       11.28902
H         56.52512       57.09367        9.77516
H         56.82962       58.75516        9.13331
N         57.40893       58.30173       13.56850
C         57.26201       57.68826       14.88071
C         55.88556       57.07710       15.06736
O         55.78756       55.94585       15.52120
C         57.54975       58.75264       15.94777
H         57.60065       59.30704       13.52832
H         58.03452       56.89985       15.00881
H         58.56794       59.16850       15.76861
H         56.82125       59.58967       15.89467
H         57.53644       58.30862       16.96352
N         54.77154       57.77379       14.71497
C         53.42387       57.20391       14.79184
C         53.29851       56.08348       13.76415
O         52.68404       55.06274       14.04105
C         52.34453       58.27141       14.51220
C         52.61730       59.54782       15.26455
O         53.29676       60.41926       14.74459
O         52.27476       59.66375       16.55960
H         54.89911       58.71633       14.32469
H         53.24448       56.84135       15.83016
H         51.33776       57.88012       14.78905
H         52.30973       58.50514       13.42957
N         53.95573       56.19906       12.56954
C         54.03592       55.14311       11.58088
C         52.83027       55.04403       10.67389
O         52.74078       54.06148        9.95311
H         54.53384       57.02625       12.41333
H         54.23097       54.17931       12.09754
H         54.91152       55.33067       10.91954
N         51.90110       56.04569       10.58858
C         50.69953       55.92427        9.75067
C         50.76891       56.68159        8.41608
O         49.84857       56.54291        7.62155
C         49.43137       56.26612       10.56435
C         49.32634       57.70371       11.01831
N         48.19568       58.14549       11.61270
O         50.24664       58.47997       10.83301
H         52.05687       56.91318       11.11985
H         50.58526       54.86365        9.44184
H         49.37547       55.60284       11.45698
H         48.55165       56.05000        9.92391
H         47.39110       57.51532       11.74106
H         48.11824       59.12809       11.91575
N         51.85502       57.42706        8.06937
C         52.09026       57.94384        6.72102
C         52.19899       59.45617        6.59838
O         51.90292       59.97899        5.53460
H         52.59120       57.53338        8.75530
H         51.32070       57.58975        6.00516
H         53.05423       57.51734        6.36836
N         52.63261       60.22068        7.63381
C         52.73175       61.67758        7.58876
C         53.95156       62.14454        8.36007
O         54.28355       61.58017        9.39264
C         51.43893       62.33941        8.13428
C         50.44808       62.63025        7.01209
O         50.80369       61.51684        9.07372
H         52.83213       59.76146        8.52106
H         52.89618       62.03660        6.54766
H         51.65696       63.34159        8.57304
H         51.34242       61.56767        9.89302
H         49.51515       63.05096        7.44258
H         50.88282       63.38821        6.32337
H         50.20214       61.71312        6.44276
N         54.63645       63.23515        7.92067
C         55.85173       63.72075        8.54781
C         55.53934       64.92700        9.41665
O         55.00696       65.91369        8.92542
C         56.89615       64.04415        7.43723
C         57.27027       62.81118        6.57336
C         58.16780       64.68821        7.99282
C         57.80259       61.60832        7.36314
H         54.28090       63.74753        7.09889
H         56.29003       62.94653        9.21144
H         56.45462       64.80366        6.75294
H         58.04481       63.12697        5.83939
H         56.38679       62.47492        5.99122
H         58.68794       64.02495        8.70916
H         58.84988       64.93633        7.15620
H         57.92113       65.64727        8.47498
H         58.14887       60.82870        6.65366
H         58.65751       61.88186        8.01348
H         56.99758       61.16515        7.98496
N         55.91390       64.92065       10.73065
C         55.92115       66.10859       11.56848
C         57.24055       66.82062       11.33842
O         58.10493       66.24525       10.70557
C         55.79554       65.68500       13.05673
C         54.47913       64.99864       13.35147
O         54.39017       63.72461       13.78619
O         53.44684       65.62638       13.21300
H         56.44955       64.11664       11.06803
H         55.09111       66.78821       11.27185
H         55.84464       66.58593       13.70508
H         56.65339       65.02572       13.32228
N         57.48555       68.07705       11.78662
C         58.75608       68.75053       11.52198
C         59.97840       67.98787       12.07479
O         60.90349       67.78864       11.30714
C         58.70914       70.21866       11.98067
C         59.98321       70.97305       11.66088
C         60.44735       71.08535       10.33425
C         60.71586       71.57725       12.69528
C         61.62913       71.78074       10.05795
C         61.89242       72.27671       12.41168
C         62.35034       72.37601       11.09550
H         56.73577       68.58071       12.29008
H         58.88669       68.79236       10.41487
H         58.49384       70.25836       13.06707
H         57.86933       70.72317       11.45270
H         59.90075       70.63472        9.51607
H         60.37346       71.50824       13.71984
H         61.98569       71.85918        9.03844
H         62.44967       72.74169       13.21407
H         63.26334       72.91586       10.87968
N         60.06613       67.51812       13.36529
C         61.25223       66.81041       13.84974
C         61.46149       65.44208       13.21079
O         62.56728       64.91943       13.29557
C         61.01456       66.74264       15.36114
C         59.49770       66.69392       15.45704
C         59.06062       67.68884       14.38264
H         62.16585       67.41236       13.65291
H         61.56186       65.93562       15.89497
H         61.31706       67.72140       15.79531
H         59.18013       65.67644       15.13320
H         59.07293       66.89513       16.46320
H         58.03854       67.41170       14.06838
H         59.09633       68.74012       14.73955
N         60.46796       64.80637       12.53680
C         60.69350       63.61411       11.72079
C         61.39704       64.03782       10.44097
O         62.35197       63.39480       10.03459
C         59.34470       62.91408       11.43513
C         58.79452       62.34845       12.75630
C         57.39512       61.85127       12.71940
O         56.65264       61.85908       11.60422
O         56.86311       61.54308       13.77468
H         59.52322       65.22053       12.54724
H         61.31769       62.86132       12.25643
H         59.46349       62.07559       10.71409
H         58.64610       63.65346       11.00113
H         58.78400       63.15535       13.51788
H         59.44567       61.52902       13.12327
N         60.97223       65.14558        9.77011
C         61.60472       65.66985        8.58119
H         62.62856       65.27502        8.43796
H         60.97845       65.43181        7.70211
H         61.65631       66.77883        8.65861
H         60.18089       65.66782       10.13636
Ca        54.59084       62.03672       12.32356
O         52.40996       63.39361       11.15774
H         51.48055       63.22608       11.44806
H         52.53626       64.35981       11.30515
O         52.55743       60.27132       11.54832
H         51.59464       60.21974       11.74136
H         52.63665       59.78396       10.69855
O         50.78121       61.80754       13.35952
H         50.12621       62.23727       13.95839
H         51.63054       61.83959       13.86056

Ca 1.70



