%chk=loop1.cluster115.chk
%nprocshared=48
%mem=10GB
%nosave
#b3lyp/svp scf=(tight,noincore) Test 
#IOP(5/87=12) Density=Current Pop=(MK,readradii) iop(6/33=2) iop(6/42=6)

loop1.cluster115 

   0  1 
C         46.68986       39.58629        8.63260
C         47.07787       39.33386        7.20902
O         48.12187       39.80163        6.78302
H         45.68097       39.17493        8.84538
H         47.42218       39.07381        9.28915
H         46.68018       40.67358        8.85411
N         46.26126       38.59913        6.40557
C         46.59307       38.24105        5.03352
C         45.86819       39.14548        4.06807
O         45.20711       38.67220        3.15313
C         46.33342       36.73190        4.78511
C         44.91739       36.24887        5.03613
O         44.26071       35.78136        4.11968
O         44.39635       36.25581        6.27811
H         45.36277       38.29369        6.79055
H         47.66632       38.44282        4.83352
H         47.01887       36.12526        5.41209
H         46.57228       36.54266        3.72952
N         45.96749       40.49507        4.22248
C         45.28200       41.43809        3.36074
C         46.14960       42.67993        3.17351
O         46.15323       43.50633        4.07764
C         43.97789       41.87117        4.07479
C         42.86146       40.81925        4.11933
C         42.17557       40.67401        2.75129
C         40.83163       39.93827        2.84524
N         40.97980       38.56367        3.31736
H         46.47977       40.86808        5.03582
H         45.04139       40.97460        2.39496
H         43.55517       42.78250        3.59888
H         44.23900       42.14209        5.12363
H         42.10185       41.20254        4.83230
H         43.22422       39.84338        4.50884
H         42.84865       40.17490        2.02136
H         41.93874       41.68868        2.36177
H         40.36827       39.93463        1.83442
H         40.14777       40.49502        3.52685
H         41.69275       38.06001        2.74244
H         41.25776       38.55522        4.32491
H         40.05905       38.07707        3.22521
N         46.93788       42.93301        2.08294
C         47.26709       42.05784        0.95591
C         46.14579       41.81997       -0.05910
O         44.97978       41.89661        0.29308
C         47.98339       40.75707        1.38908
C         49.20200       41.05396        2.21608
O         50.43912       40.97224        1.65090
O         49.06251       41.41779        3.36915
H         47.44792       43.83149        2.09956
H         48.03001       42.63733        0.39837
H         48.34033       40.21644        0.50635
H         47.31251       40.04626        1.91009
N         46.41825       41.54996       -1.37541
C         47.76254       41.60105       -1.93220
C         47.79216       41.26566       -3.40088
O         47.70256       42.18720       -4.19915
H         45.62890       41.36367       -2.01409
H         48.47874       40.96281       -1.40710
H         48.15334       42.63870       -1.81715
N         48.03305       40.00445       -3.87580
C         48.22147       38.80450       -3.05750
C         46.90527       38.27073       -2.50384
O         46.03247       37.89270       -3.26982
C         48.90017       37.71284       -3.92246
C         49.20412       36.43285       -3.18892
O         49.90915       36.45791       -2.04259
O         48.86299       35.36091       -3.66438
H         48.15755       39.91067       -4.89563
H         48.94539       39.01914       -2.24018
H         49.86859       38.12179       -4.27728
H         48.27201       37.48457       -4.81254
N         46.74391       38.15519       -1.16125
C         45.64565       37.44317       -0.51592
C         46.21267       36.44938        0.48209
O         45.49551       36.04140        1.39019
H         47.47437       38.53724       -0.54891
H         44.94070       36.95789       -1.22388
H         45.08567       38.19840        0.07481
N         47.53911       36.13113        0.45397
C         48.26828       35.58921        1.57736
C         49.16674       36.68879        2.08774
O         49.59789       37.55060        1.32045
C         49.10586       34.35414        1.18785
C         48.20602       33.17945        0.81926
O         49.97609       33.96541        2.22519
H         48.10815       36.42907       -0.34904
H         47.58834       35.28172        2.39503
H         49.73508       34.62709        0.31258
H         49.43401       33.77243        3.03445
H         47.61243       32.87024        1.70805
H         47.51229       33.46475        0.00339
H         48.83113       32.32455        0.49050
N         49.50019       36.71679        3.39434
C         50.37408       37.71750        3.97314
C         51.75835       37.70306        3.33111
O         52.43901       38.69114        3.45008
C         50.45921       37.46331        5.50682
C         51.02732       38.66248        6.29519
C         51.20214       36.14338        5.79551
C         50.84092       38.49691        7.80789
H         49.09148       35.99178        4.00400
H         49.89902       38.70939        3.78296
H         49.41345       37.34973        5.86189
H         50.42993       39.54503        6.00515
H         52.09288       38.87379        6.06057
H         51.18250       35.89320        6.87213
H         50.74778       35.29152        5.25213
H         52.24329       36.20908        5.44396
H         49.79759       38.18832        8.03895
H         51.53699       37.73840        8.21759
H         51.02742       39.46460        8.31878
N         52.23436       36.58224        2.69232
C         53.57859       36.36499        2.13183
C         54.64838       36.26943        3.22192
O         55.21581       35.20205        3.38642
C         53.92759       37.27032        0.92679
C         55.20552       36.74675        0.24024
O         54.09568       38.60505        1.31904
H         51.60829       35.77364        2.63735
H         53.52896       35.34318        1.68781
H         53.08548       37.19936        0.19954
H         54.44028       39.09899        0.53119
H         55.09960       35.66999       -0.01599
H         55.39436       37.30125       -0.70258
H         56.08305       36.87036        0.90952
N         54.93726       37.33192        4.02264
C         55.74228       37.31343        5.23817
C         57.22520       37.18976        5.00138
O         57.65436       36.55107        4.04996
C         55.18671       36.41540        6.37456
C         55.61007       36.88828        7.76923
O         55.57656       35.07413        6.22920
H         54.51960       38.23245        3.80066
H         55.58689       38.33750        5.63400
H         54.08952       36.52659        6.38813
H         54.95017       34.64145        5.60207
H         55.01386       36.35193        8.53754
H         56.67948       36.68635        7.95298
H         55.41781       37.97628        7.89597
N         58.06464       37.86695        5.83252
C         59.50117       37.85583        5.73314
C         60.15853       39.15717        5.26630
O         61.24158       39.00916        4.71387
C         60.12910       37.44613        7.08549
C         59.83646       36.00971        7.55321
C         60.19974       34.97720        6.47863
C         60.16398       33.54529        7.01178
N         60.30344       32.59093        5.91130
H         57.65145       38.39567        6.59521
H         59.81016       37.11880        4.96027
H         59.79990       38.15897        7.87594
H         61.23326       37.53021        6.99920
H         58.76931       35.87996        7.82333
H         60.44140       35.83849        8.47091
H         61.21387       35.17804        6.06888
H         59.45112       35.06335        5.66348
H         59.19694       33.36284        7.52693
H         60.99084       33.40229        7.74516
H         61.24412       32.68307        5.46351
H         60.18823       31.62051        6.28070
H         59.55864       32.76252        5.19594
N         59.72564       40.45442        5.43879
C         58.49402       41.03062        5.98995
C         58.25320       40.79214        7.47973
O         57.23416       40.23059        7.85518
C         57.27625       40.87256        5.02907
C         56.13673       41.84119        5.42046
C         54.91886       41.90913        4.52319
O         54.70917       41.06146        3.49395
O         54.07684       42.75486        4.76491
H         60.38602       41.16702        5.08681
H         58.66277       42.13011        5.95588
H         56.91523       39.84876        4.97128
H         57.61603       41.15263        4.00984
H         56.56811       42.86351        5.44195
H         55.77110       41.60238        6.44112
N         59.12090       41.30460        8.39872
C         58.86159       41.25447        9.82753
H         57.82191       40.93726       10.06064
H         59.57183       40.55681       10.31398
H         58.99234       42.26894       10.26318
H         59.97204       41.78972        8.07735
Ca        52.62355       41.03273        2.45807
O         53.04985       41.02858       -0.37857
H         53.68679       40.66656       -1.04404
H         52.19761       40.56145       -0.56723
O         51.72950       41.63230        5.04766
H         51.42293       42.35897        5.64126
H         50.90439       41.25859        4.66999
O         51.71734       43.86121        2.07930
H         50.94103       43.88426        2.69328
H         51.95034       44.81189        1.93195
O         54.68801       43.31394        1.44882
H         55.58684       42.90203        1.39699
H         54.81126       44.10849        2.02672

Ca 1.70



