%chk=loop3.cluster205.chk
%nprocshared=48
%mem=10GB
%nosave
#b3lyp/svp scf=(tight,noincore) Test 
#IOP(5/87=12) Density=Current Pop=(MK,readradii) iop(6/33=2) iop(6/42=6)

loop3.cluster205 

   0  1 
C         58.12090       26.92125       48.70519
C         58.08035       25.81344       49.71075
O         57.45377       24.79448       49.44917
H         57.61250       27.80961       49.13495
H         59.16878       27.18160       48.44999
H         57.58604       26.62274       47.77782
N         58.74329       25.93568       50.89583
C         58.66270       24.92326       51.93951
C         58.42744       25.58649       53.29169
O         59.15757       26.50461       53.64948
C         59.92486       24.05513       51.95727
C         59.66829       22.85323       52.81776
O         58.84119       22.02098       52.47696
O         60.31670       22.70596       53.98072
H         59.33622       26.76782       51.05089
H         57.82215       24.22967       51.71486
H         60.79451       24.64232       52.32080
H         60.15995       23.68129       50.93598
N         57.40480       25.17754       54.09128
C         57.05595       25.84145       55.34943
C         58.11611       25.73078       56.44356
O         58.06532       26.52383       57.37058
C         55.67669       25.33189       55.83834
C         54.58459       25.90309       54.91457
C         53.18814       25.31204       55.13381
C         52.24085       25.86266       54.04824
N         50.86396       25.39897       54.21734
H         56.81858       24.39525       53.75917
H         56.96109       26.93164       55.14142
H         55.45745       25.64971       56.87947
H         55.68130       24.21833       55.81500
H         54.86918       25.71501       53.85894
H         54.53717       27.00537       55.07167
H         52.81855       25.56640       56.15007
H         53.24205       24.20691       55.04213
H         52.61839       25.53875       53.05056
H         52.24477       26.97450       54.07180
H         50.81325       24.36170       54.28079
H         50.45363       25.80540       55.08662
H         50.30144       25.71063       53.39170
N         59.09604       24.78149       56.40752
C         60.16208       24.70209       57.41893
C         61.55905       24.77923       56.80518
O         62.52032       24.78527       57.56500
C         60.00408       23.40050       58.23703
C         60.05116       22.20119       57.33598
O         61.10938       21.85032       56.84421
O         58.90955       21.64231       56.90158
H         59.06902       24.07593       55.66317
H         60.08521       25.55092       58.13257
H         59.02329       23.43564       58.75736
H         60.79075       23.31281       59.02118
N         61.76098       24.81928       55.45377
C         63.08307       24.85223       54.85172
C         63.33112       23.63431       53.99063
O         63.55091       23.77670       52.79621
H         60.95776       24.83428       54.81605
H         63.88745       24.88414       55.61711
H         63.16456       25.77355       54.23800
N         63.38615       22.39736       54.55877
C         63.76703       21.20199       53.80972
C         62.69538       20.81602       52.79845
O         61.55023       20.63729       53.17563
C         64.11043       20.06880       54.79162
C         64.70369       18.88570       54.07294
N         66.04589       18.77502       53.92843
O         63.96926       18.03667       53.59346
H         63.23798       22.32206       55.57630
H         64.72068       21.42109       53.27942
H         63.25492       19.76278       55.43134
H         64.88959       20.47537       55.47638
H         66.67701       19.49988       54.30189
H         66.45139       17.97597       53.41973
N         63.02033       20.67054       51.48051
C         62.05341       20.48660       50.39839
C         61.16494       19.25286       50.41975
O         60.42052       19.07070       49.46558
H         64.01018       20.77134       51.21063
H         62.63072       20.44645       49.44756
H         61.39252       21.37629       50.35282
N         61.17911       18.35589       51.44092
C         60.35006       17.15926       51.44429
C         58.96307       17.46320       51.99659
O         58.85319       18.15596       52.99925
C         61.04552       16.10017       52.30801
C         60.46828       14.71697       52.16190
C         60.70561       13.97298       50.99119
C         59.74913       14.13646       53.21454
C         60.25662       12.65247       50.89439
C         59.28764       12.82214       53.10939
C         59.55351       12.07069       51.95458
O         59.14676       10.78871       51.86109
H         61.83641       18.48342       52.21727
H         60.29304       16.74011       50.41466
H         61.03034       16.43673       53.36686
H         62.11394       16.02408       52.00536
H         61.26909       14.40327       50.17137
H         59.55285       14.70101       54.11679
H         60.47068       12.07502       50.00293
H         58.73884       12.38297       53.93186
H         58.68272       10.34946       52.58817
N         57.86771       16.89147       51.42137
C         56.47998       17.06109       51.85872
C         56.19584       16.76196       53.32816
O         57.09092       16.47656       54.10518
C         55.82881       18.38701       51.33752
C         55.78150       18.35004       49.79447
C         56.45416       19.68168       51.88076
C         54.68706       19.24440       49.21789
H         58.02380       16.25524       50.62635
H         55.90175       16.25816       51.35239
H         54.77296       18.39825       51.66137
H         55.50412       17.32609       49.46000
H         56.78148       18.58532       49.37287
H         56.45798       19.67405       52.99072
H         57.49035       19.80968       51.50914
H         55.86340       20.56564       51.55794
H         53.69748       18.91220       49.60737
H         54.84248       20.30830       49.47718
H         54.67073       19.12948       48.11439
N         54.89626       16.78974       53.73607
C         54.43124       16.56737       55.09423
C         53.40177       15.43573       55.13784
O         53.35776       14.72314       56.13333
C         53.83027       17.88879       55.61196
O         52.83953       18.36519       54.74723
H         54.18564       17.02364       53.04198
H         55.26762       16.31116       55.77976
H         54.64131       18.64593       55.65934
H         53.40990       17.74342       56.63014
H         52.56417       19.25066       55.10098
N         52.49029       15.26000       54.13014
C         51.41893       14.27521       54.13617
C         50.58516       14.29112       55.42144
O         50.47297       13.25065       56.05265
C         51.96672       12.87566       53.80471
H         52.50578       15.88741       53.31633
H         50.73054       14.51920       53.29591
H         52.48820       12.89382       52.82319
H         52.67053       12.51468       54.58188
H         51.12356       12.15347       53.71797
N         49.91374       15.39616       55.87105
C         50.00049       16.73639       55.30694
C         48.75450       17.08700       54.50934
O         47.67373       16.74898       54.97169
C         50.11313       17.74464       56.45819
H         49.31576       15.27698       56.70471
H         50.91345       16.84462       54.74289
H         50.97929       17.50481       57.10844
H         50.23973       18.77567       56.06359
H         49.19096       17.72362       57.07953
N         48.76205       17.86137       53.37616
C         49.94580       18.41171       52.71084
C         50.00207       18.03298       51.22750
O         51.06834       18.14279       50.63479
C         49.95095       19.93800       52.92190
C         51.23458       20.60947       52.41750
C         51.19902       22.08482       52.62359
O         50.32340       22.76211       52.10675
O         52.16911       22.67246       53.34289
H         47.84269       18.13899       53.00469
H         50.87255       18.02799       53.14690
H         49.86400       20.14227       54.01382
H         49.06048       20.37563       52.41963
H         51.37408       20.43703       51.33607
H         52.10855       20.19649       52.96383
N         48.90681       17.56995       50.55657
C         48.97322       17.17476       49.16766
H         49.28259       18.03115       48.53103
H         49.69377       16.33838       49.05243
H         47.97223       16.82704       48.83355
H         47.99599       17.49334       51.02243
Ca        59.07821       20.40972       55.01398
O         57.09370       19.05258       56.22274
H         57.01578       18.29095       56.84667
H         57.02774       18.65110       55.32077
O         56.67580       21.84550       54.76987
H         56.11965       21.67487       55.57044
H         56.02949       21.95334       54.02896
O         60.67727       18.63723       56.34056
H         61.15736       19.03591       57.10859
H         61.25234       17.89427       56.03243

Ca 1.70



