%chk=loop3.cluster19.chk
%nprocshared=48
%mem=10GB
%nosave
#b3lyp/svp scf=(tight,noincore) Test 
#IOP(5/87=12) Density=Current Pop=(MK,readradii) iop(6/33=2) iop(6/42=6)

loop3.cluster19 

   0  1 
C         35.19112       49.50310       20.21941
C         36.39848       48.63723       20.34737
O         36.79764       48.01143       19.37567
H         34.39876       49.09810       20.88643
H         35.44023       50.53768       20.52755
H         34.81386       49.49789       19.17574
N         37.00112       48.50798       21.55915
C         38.06033       47.55366       21.80177
C         37.45645       46.41962       22.58119
O         37.51043       46.39910       23.80348
C         39.27595       48.20714       22.46804
C         40.30980       47.19066       22.82783
O         40.41750       46.16395       22.18419
O         40.95186       47.30504       23.99286
H         36.62168       49.02911       22.36481
H         38.42755       47.11782       20.85709
H         38.98049       48.74000       23.39494
H         39.73333       48.93955       21.77320
N         36.76686       45.47141       21.89692
C         36.07863       44.37633       22.55022
C         37.06839       43.35826       23.09821
O         36.74976       42.68824       24.07175
C         35.09809       43.74107       21.54478
C         34.19979       42.67316       22.18805
C         33.08482       42.18397       21.25192
C         33.61614       41.45233       20.01020
N         32.51698       41.03435       19.14141
H         36.70424       45.55629       20.86922
H         35.46156       44.80153       23.37366
H         35.66756       43.32462       20.68694
H         34.44163       44.55678       21.16148
H         33.70713       43.12699       23.07547
H         34.81132       41.80994       22.52280
H         32.46727       43.05558       20.94088
H         32.43336       41.48755       21.82347
H         34.20106       40.55950       20.32644
H         34.28196       42.12268       19.42951
H         31.92791       40.31627       19.62160
H         31.92882       41.86063       18.88434
H         32.91375       40.62253       18.26610
N         38.26655       43.14054       22.47248
C         39.20726       42.11270       22.91308
C         40.02831       42.53191       24.12793
O         40.54533       41.66657       24.82114
C         40.06713       41.56152       21.74992
C         40.98556       42.50442       20.95821
O         41.90216       43.19686       21.74478
O         40.30995       43.43628       20.16728
H         38.48175       43.68366       21.62946
H         38.59708       41.23622       23.23561
H         39.38307       41.10711       21.00317
H         40.70715       40.75017       22.15487
N         40.13222       43.84195       24.48093
C         40.73653       44.28087       25.72767
C         42.24739       44.23480       25.81511
O         42.76410       44.36789       26.91623
H         39.68191       44.55220       23.89364
H         40.25990       43.76097       26.58313
H         40.49998       45.35980       25.84835
N         43.02386       44.27617       24.69612
C         44.44556       44.62598       24.75525
C         44.65999       46.12287       25.08626
O         45.80334       46.55071       25.14482
C         45.16857       44.30727       23.42082
C         44.69799       45.09711       22.23417
N         45.43087       45.11116       21.10368
O         43.67764       45.75400       22.29469
H         42.57560       44.16830       23.78247
H         44.94370       43.99024       25.52114
H         45.09940       43.22796       23.17009
H         46.24406       44.55036       23.56484
H         46.31596       44.59350       21.03952
H         45.13439       45.68254       20.31130
N         43.60991       46.97589       25.29916
C         43.76552       48.40609       25.52890
C         44.00449       49.22157       24.26037
O         44.50895       50.32876       24.36514
H         42.66281       46.60446       25.34816
H         44.55288       48.58035       26.29275
H         42.81964       48.80301       25.95750
N         43.62283       48.75505       23.03318
C         43.85230       49.47472       21.77526
C         42.71113       49.25731       20.79426
O         42.24224       48.13797       20.64980
C         45.11054       48.92683       21.07973
C         46.33574       49.12543       21.92258
C         46.95088       50.38384       22.00642
C         46.85935       48.05096       22.64975
C         48.07401       50.55898       22.82109
C         47.96639       48.22882       23.47487
C         48.57657       49.48129       23.56818
O         49.63885       49.64122       24.38108
H         43.19390       47.83289       22.98392
H         44.00875       50.56111       21.95085
H         45.27093       49.40967       20.08823
H         44.95052       47.85006       20.88832
H         46.56421       51.22155       21.43815
H         46.39228       47.08382       22.59920
H         48.54758       51.53029       22.87807
H         48.34265       47.39236       24.04931
H         50.06849       50.50049       24.49142
N         42.37270       50.26013       19.93772
C         41.45191       50.07789       18.81948
C         42.25917       50.14375       17.53715
O         43.03665       51.06923       17.36377
C         40.39684       51.21388       18.77175
C         39.63418       51.36164       20.10206
C         39.40289       50.96580       17.60839
C         38.91394       52.70963       20.17852
H         42.85657       51.16508       20.02369
H         40.91594       49.10352       18.88672
H         40.95061       52.16328       18.59488
H         40.34843       51.35531       20.95134
H         38.92273       50.51864       20.23537
H         38.87950       49.99393       17.74982
H         38.64013       51.76132       17.52681
H         39.92527       50.94035       16.63240
H         38.15730       52.83018       19.37964
H         38.40634       52.80711       21.15812
H         39.66080       53.52994       20.08718
N         42.05233       49.22034       16.56169
C         42.67380       49.31212       15.24509
C         41.58646       49.43927       14.18854
O         40.42309       49.52499       14.52909
C         43.58861       48.10294       15.02012
O         42.86613       46.90554       15.00645
H         41.37827       48.46466       16.72896
H         43.31429       50.21561       15.16433
H         44.37975       48.08202       15.80586
H         44.12515       48.19507       14.05447
H         42.70097       46.67760       15.95290
N         41.91960       49.50456       12.87226
C         40.92961       49.71307       11.81806
C         39.91103       48.58921       11.72188
O         38.72122       48.88479       11.70738
C         41.65120       49.92618       10.48820
H         42.91251       49.44786       12.61320
H         40.37627       50.65798       12.01804
H         40.91928       50.07567        9.66730
H         42.26874       50.84823       10.57268
H         42.31676       49.07127       10.24917
N         40.28072       47.27757       11.63632
C         39.28569       46.20974       11.52096
C         38.36064       46.12694       12.73427
O         37.29284       45.54323       12.62686
C         39.96138       44.85755       11.28296
H         41.28643       47.04041       11.63849
H         38.65736       46.43607       10.63025
H         39.20396       44.05595       11.14842
H         40.57949       44.91215       10.36145
H         40.61878       44.59590       12.14006
N         38.72353       46.67058       13.92901
C         37.83153       46.70096       15.08514
C         36.80766       47.80533       14.92306
O         35.64022       47.59049       15.21800
C         38.62688       46.94543       16.36614
C         39.61002       45.80333       16.63235
C         40.29242       46.06068       17.92310
O         41.49284       46.20924       17.95359
O         39.58239       46.14533       19.05673
H         39.66252       47.08021       14.02537
H         37.32947       45.71765       15.23057
H         37.91375       46.99552       17.21734
H         39.16999       47.91129       16.30540
H         40.35902       45.73242       15.81292
H         39.08237       44.82812       16.70680
N         37.18136       49.01067       14.40839
C         36.25639       50.08885       14.14744
H         35.29343       49.95790       14.68084
H         36.71409       51.05191       14.45940
H         36.07065       50.13193       13.05363
H         38.14895       49.13973       14.10041
Ca        41.89931       45.03476       20.40440
O         43.50490       43.34059       19.09664
H         43.11548       42.91702       18.29216
H         44.47261       43.14505       19.06088
O         43.94026       46.50963       18.51260
H         44.85088       46.42356       18.14090
H         43.66966       47.44220       18.32736

Ca 1.70



