%chk=loop4.cluster55.chk
%nprocshared=48
%mem=10GB
%nosave
#b3lyp/svp scf=(tight,noincore) Test 
#IOP(5/87=12) Density=Current Pop=(MK,readradii) iop(6/33=2) iop(6/42=6)

loop4.cluster55 

   -3  1 
C         42.50860       40.44613       42.33944
C         42.02196       40.05974       43.70038
O         42.67358       39.27587       44.37103
H         43.49012       39.97772       42.11298
H         41.76437       40.15906       41.57076
H         42.64172       41.55036       42.32592
N         40.90724       40.66339       44.20149
C         40.46372       40.56582       45.58555
C         41.59757       40.93358       46.51637
O         41.99583       40.10747       47.30657
C         39.68033       39.27488       45.95194
C         40.44090       37.99311       46.09179
O         40.89981       37.42704       45.11529
O         40.54118       37.42239       47.30751
H         40.42578       41.35193       43.60513
H         39.69144       41.35224       45.72871
H         38.83925       39.12441       45.24242
H         39.23067       39.46950       46.95176
N         42.15481       42.18354       46.43066
C         43.23110       42.77781       47.24449
C         42.82653       42.98072       48.71169
O         42.74697       44.11635       49.15782
C         44.65198       42.13441       47.06812
C         45.70214       43.13948       47.65116
C         44.94866       41.80709       45.59461
C         47.17071       42.86829       47.32452
H         41.75880       42.80315       45.70821
H         43.34822       43.80097       46.82098
H         44.72326       41.16549       47.61322
H         45.57211       43.14845       48.75387
H         45.51969       44.17111       47.27648
H         45.95093       41.33869       45.49228
H         44.22991       41.05228       45.22713
H         44.89840       42.70875       44.95310
H         47.41604       41.81654       47.43159
H         47.40594       43.13838       46.27509
H         47.82157       43.46793       47.99780
N         42.55216       41.91414       49.50633
C         42.10520       41.96392       50.88372
C         43.07759       41.21088       51.81887
O         43.44358       41.80143       52.82342
C         40.65715       41.41148       51.02766
C         39.67637       42.05217       50.07697
O         39.51284       43.38837       50.06403
O         39.00843       41.35598       49.32695
H         42.63009       41.01382       49.10142
H         42.04215       43.02300       51.22122
H         40.31064       41.60838       52.06527
H         40.60379       40.31897       50.87580
N         43.52264       39.91504       51.62962
C         43.27652       39.10982       50.44260
C         43.59331       37.64887       50.59372
O         42.65734       36.86354       50.51666
H         44.08899       39.49089       52.37902
H         43.86458       39.47738       49.58014
H         42.19886       39.13663       50.20307
N         44.84672       37.13476       50.74068
C         46.13001       37.84416       50.87663
C         46.46497       38.74581       49.68526
O         46.13930       38.36406       48.57661
C         47.18617       36.72775       50.94232
C         48.55519       37.24659       51.04977
O         49.03175       37.72226       52.21576
O         49.23539       37.27057       50.04907
H         44.88236       36.10102       50.76086
H         46.13757       38.43034       51.81245
H         47.11970       36.14586       49.99015
H         47.00053       36.02007       51.77606
N         47.14275       39.93614       49.77966
C         47.74492       40.54082       50.96374
C         49.10773       41.16371       50.62958
O         49.19876       42.38338       50.58944
H         47.22784       40.47183       48.91779
H         47.82501       39.85107       51.81829
H         47.08063       41.37723       51.26390
N         50.19266       40.38709       50.32160
C         51.46999       40.92003       49.83718
C         51.50718       40.67729       48.34160
O         52.44077       40.09369       47.81810
C         52.67838       40.37880       50.67089
C         52.78509       38.84481       50.86128
C         53.12832       38.09481       49.59809
N         52.24168       37.24349       49.04169
O         54.21731       38.26008       49.07143
H         50.07956       39.37715       50.33014
H         51.49502       42.02834       49.93053
H         52.56466       40.80373       51.69162
H         53.63534       40.77189       50.25970
H         51.84302       38.47112       51.31185
H         53.58488       38.62106       51.60120
H         51.33678       37.09991       49.47615
H         52.45216       36.74136       48.16882
N         50.44574       41.12700       47.60741
C         50.19080       40.93453       46.18915
C         51.43774       40.94380       45.34606
O         52.08451       39.91643       45.25318
C         49.15966       39.78879       45.98369
C         49.70501       38.37037       46.24056
C         48.49846       39.87522       44.61119
H         49.69556       41.60699       48.11775
H         49.65402       41.86390       45.90092
H         48.35512       39.95988       46.72571
H         50.48683       38.08929       45.50498
H         50.12544       38.28381       47.26377
H         48.88482       37.62658       46.14414
H         49.19618       39.54513       43.81575
H         47.58388       39.24349       44.61232
H         48.17742       40.91787       44.40107
N         51.90789       42.13434       44.84083
C         53.22439       42.32804       44.23283
C         53.28321       41.85380       42.78305
O         53.50505       42.67610       41.91031
C         54.30417       41.78349       45.19101
C         55.73678       42.10449       44.90069
N         56.66364       41.82479       45.84579
O         56.07174       42.61533       43.84214
H         51.35800       42.98715       45.02884
H         53.39120       43.43210       44.18717
H         54.25149       40.68477       45.29482
H         54.08094       42.24487       46.17793
H         56.36974       41.42418       46.75159
H         57.65941       42.02972       45.69060
N         53.04258       40.55279       42.45437
C         53.01620       40.09585       41.06827
C         52.28875       38.75377       40.93217
O         51.90448       38.16346       41.92305
C         54.45490       39.99632       40.51985
C         55.28023       38.92033       41.19594
C         55.37351       37.64687       40.61402
C         55.98289       39.18379       42.38305
C         56.15826       36.65242       41.20163
C         56.78820       38.19368       42.96029
C         56.88249       36.92587       42.36492
O         57.67678       35.97201       42.89255
H         52.83499       39.88547       43.18392
H         52.42608       40.82485       40.46956
H         54.98790       40.96863       40.58137
H         54.40591       39.77062       39.43472
H         54.83897       37.43004       39.70072
H         55.92703       40.15801       42.84408
H         56.21846       35.67434       40.74065
H         57.34600       38.41393       43.86209
H         58.24166       36.14545       43.65894
N         52.10943       38.22031       39.68359
C         51.49620       36.92145       39.40121
C         49.97500       36.94777       39.41169
O         49.38466       36.56940       38.40843
C         52.16867       35.75787       40.16314
C         51.78706       34.40015       39.55351
C         52.76003       33.33801       39.97612
O         52.78109       32.89615       41.24648
O         53.55860       32.89129       39.16639
H         52.48734       38.73598       38.88019
H         51.74642       36.72441       38.33415
H         51.98824       35.76992       41.25926
H         53.25768       35.87699       39.99567
H         51.86028       34.48399       38.44772
H         50.74212       34.11329       39.80350
N         49.25823       37.39736       40.47546
C         47.81182       37.55431       40.40758
C         47.44989       38.74163       39.53073
O         46.52866       38.62134       38.73492
C         47.21749       37.61662       41.81576
C         47.30009       36.21962       42.46758
C         46.68862       36.22736       43.83141
O         47.23806       35.65792       44.76206
O         45.57264       36.95436       44.03662
H         49.73861       37.72152       41.32113
H         47.34850       36.65842       39.93612
H         46.14134       37.89063       41.74457
H         47.73219       38.38474       42.42085
H         48.33853       35.81924       42.49968
H         46.69398       35.52623       41.84133
N         48.22890       39.86277       39.51376
C         48.04642       40.91864       38.53457
H         48.04946       41.91131       39.02851
H         48.89339       40.87512       37.81642
H         47.10499       40.81204       37.95434
H         49.04068       39.92833       40.14512
Ca        43.51509       36.15766       44.46351
O         43.88003       37.67302       46.51527
H         43.54190       38.57596       46.68244
H         44.78983       37.68365       46.87969
O         43.90427       33.61187       44.02154
H         43.77311       33.30128       43.09196
H         44.59743       33.02557       44.41042
O         42.53310       34.95966       46.95770
H         42.97781       34.92955       47.84055
H         41.63316       35.31590       47.15172
O         43.29819       36.18419       41.69797
H         42.72292       35.54322       41.21158
H         44.13164       36.22936       41.16765
O         41.17768       34.81141       43.44945
H         40.37355       34.61686       43.99141
H         40.92171       34.57674       42.52298

Ca 1.70



