%chk=loop3.cluster33.chk
%nprocshared=48
%mem=10GB
%nosave
#b3lyp/svp scf=(tight,noincore) Test 
#IOP(5/87=12) Density=Current Pop=(MK,readradii) iop(6/33=2) iop(6/42=6)

loop3.cluster33 

   0  1 
C         58.33224       48.55327       42.15475
C         57.54098       48.50146       43.41644
O         57.91990       47.80017       44.33823
H         59.27080       47.97027       42.25490
H         57.72086       48.13909       41.32682
H         58.58310       49.61276       41.93638
N         56.43020       49.26984       43.53651
C         55.63610       49.32436       44.74917
C         54.70896       48.11411       44.80018
O         53.62728       48.13679       44.22973
C         54.93467       50.68115       44.78824
C         53.99411       50.87185       45.91536
O         53.02121       51.57581       45.73128
O         54.07731       50.12140       47.02651
H         56.18538       49.89465       42.75353
H         56.30947       49.33751       45.62591
H         54.35496       50.81089       43.85339
H         55.70201       51.48810       44.83537
N         55.15567       46.97497       45.38861
C         54.46481       45.69448       45.38187
C         53.16709       45.75208       46.17061
O         52.11050       45.43357       45.64568
C         55.41875       44.61069       45.96693
C         56.80454       44.52878       45.27280
C         56.65242       44.47253       43.75078
C         57.88702       43.91205       43.05347
N         57.61618       43.75786       41.62461
H         56.08587       47.00187       45.80222
H         54.23259       45.41291       44.33288
H         54.92007       43.62463       45.84866
H         55.60510       44.76630       47.05265
H         57.29879       43.61223       45.65773
H         57.48227       45.37275       45.53321
H         56.42059       45.49182       43.35943
H         55.80921       43.79585       43.50967
H         58.10502       42.90951       43.48418
H         58.77054       44.56938       43.21329
H         57.41696       44.68896       41.19202
H         58.44410       43.32431       41.15915
H         56.79029       43.12832       41.48732
N         53.20631       46.15992       47.46261
C         52.02894       46.32509       48.32645
C         51.18443       47.54235       47.96156
O         50.12104       47.71055       48.54690
C         52.47788       46.38083       49.81249
C         53.68073       47.27966       50.01399
O         54.78245       46.76511       50.08967
O         53.58671       48.61882       49.91241
H         54.13541       46.38062       47.82970
H         51.37594       45.42638       48.22457
H         52.80845       45.34730       50.06024
H         51.64186       46.61409       50.50994
N         51.56594       48.42070       46.98961
C         50.72689       49.52682       46.56064
C         50.55188       50.65510       47.57119
O         49.75410       51.53872       47.30066
H         52.44430       48.26464       46.48380
H         49.73115       49.11839       46.28433
H         51.15147       49.96928       45.63674
N         51.24745       50.70539       48.74955
C         50.99925       51.75763       49.74635
C         51.44511       53.15088       49.29457
O         51.12568       54.12262       49.96722
C         51.56882       51.35788       51.13452
C         53.06315       51.28905       51.26566
N         53.62352       50.81159       52.40167
O         53.77352       51.67303       50.35991
H         51.91492       49.96200       48.96614
H         49.90025       51.79280       49.89286
H         51.16752       50.34955       51.37153
H         51.20997       52.07030       51.90557
H         53.03272       50.50251       53.18612
H         54.64754       50.75197       52.49854
N         52.20038       53.31691       48.17425
C         52.63422       54.60389       47.65700
C         54.12838       54.79836       47.80146
O         54.61312       55.86791       47.46205
H         52.51608       52.48400       47.68634
H         52.13538       55.43695       48.19280
H         52.35060       54.67889       46.58205
N         54.92751       53.81021       48.30765
C         56.34916       53.99826       48.52942
C         57.11780       52.64637       48.71307
O         56.49041       51.58711       48.02387
C         56.61175       54.93101       49.74835
C         55.91078       54.45829       51.01051
C         54.53485       54.69757       51.18979
C         56.61983       53.77978       52.01493
C         53.87977       54.25228       52.34080
C         55.95613       53.31616       53.15892
C         54.58312       53.55191       53.32330
O         53.92929       53.09691       54.41240
H         54.52953       52.89319       48.51095
H         56.75844       54.46553       47.60330
H         56.28559       55.97437       49.54736
H         57.70912       54.98387       49.91756
H         53.96873       55.23408       50.44260
H         57.67737       53.58008       51.89802
H         52.81964       54.43838       52.46213
H         56.50568       52.76376       53.91085
H         54.37456       52.57340       55.09390
N         58.45288       52.86614       48.12117
C         59.31945       51.72392       47.81068
C         60.34557       51.56522       48.90866
O         61.09906       52.49155       49.18732
C         59.98033       51.95675       46.42225
C         58.88553       52.10718       45.33086
C         60.93898       50.80408       46.05038
C         59.40532       52.81085       44.07913
H         58.93574       53.78280       48.27877
H         58.72292       50.79108       47.72289
H         60.55889       52.90521       46.48568
H         58.05872       52.74967       45.69582
H         58.44688       51.11418       45.08124
H         61.76002       50.71883       46.79003
H         60.38815       49.83998       46.01876
H         61.41018       50.96354       45.06019
H         58.57440       52.93320       43.35289
H         59.76812       53.82476       44.35880
H         60.22724       52.25157       43.59248
N         60.46392       50.36503       49.52893
C         61.48419       50.05110       50.50912
C         62.57182       49.25637       49.82704
O         62.47546       49.00840       48.63032
C         60.84879       49.27036       51.67535
O         60.22187       48.10511       51.20719
H         59.87881       49.59294       49.18968
H         61.95777       50.97512       50.91272
H         60.12188       49.92787       52.20874
H         61.60712       48.96992       52.42492
H         59.24614       48.26320       51.26881
N         63.67811       48.86453       50.50351
C         64.76779       48.15209       49.85530
C         64.33591       46.77150       49.38786
O         64.65964       46.39177       48.27520
C         65.96479       48.03621       50.79336
H         63.76212       49.11546       51.50416
H         65.12452       48.74630       48.98195
H         66.81396       47.56612       50.25256
H         66.28060       49.05463       51.10924
H         65.71696       47.43479       51.69179
N         63.59494       45.96848       50.20697
C         63.17442       44.62140       49.81485
C         62.32800       44.63350       48.54904
O         62.40308       43.69354       47.76682
C         62.41522       43.95690       50.96945
H         63.31625       46.32729       51.13161
H         64.08580       44.01407       49.62611
H         63.06462       43.93491       51.87223
H         61.49085       44.52284       51.21484
H         62.14638       42.91059       50.71230
N         61.51413       45.68794       48.27487
C         60.75604       45.82797       47.03455
C         61.69443       46.03064       45.85678
O         61.57227       45.32564       44.86555
C         59.79440       47.02695       47.14798
C         58.72445       46.75538       48.22075
C         57.76531       47.88949       48.38470
O         56.98603       48.16977       47.50395
O         57.72197       48.57511       49.53041
H         61.45345       46.44466       48.97325
H         60.12542       44.92706       46.85099
H         59.30163       47.18834       46.17380
H         60.36698       47.94407       47.40083
H         59.22166       46.59180       49.19454
H         58.14756       45.83990       47.96692
N         62.67413       46.97699       45.91716
C         63.59848       47.23887       44.83309
H         64.62123       46.94111       45.14659
H         63.33349       46.69342       43.90414
H         63.59930       48.32726       44.61117
H         62.79461       47.51396       46.78215
Ca        55.38098       49.96251       49.32455
O         55.86747       48.16962       52.19227
H         56.22081       47.31104       51.84968
H         55.14811       47.90897       52.81977
O         57.32417       50.61589       51.26527
H         57.52864       50.32414       52.18679
H         56.60928       51.28834       51.36672

Ca 1.70



