%chk=loop3.cluster72.chk
%nprocshared=48
%mem=10GB
%nosave
#b3lyp/svp scf=(tight,noincore) Test 
#IOP(5/87=12) Density=Current Pop=(MK,readradii) iop(6/33=2) iop(6/42=6)

loop3.cluster72 

   0  1 
C         52.36358       55.50273       40.87429
C         53.14679       55.75478       42.12289
O         52.52379       55.98340       43.14293
H         51.44606       56.13236       40.86104
H         52.96435       55.71792       39.96804
H         52.04939       54.43910       40.88152
N         54.51152       55.58583       42.13042
C         55.41139       55.70076       43.29243
C         55.68135       57.15023       43.73316
O         56.82716       57.57499       43.75546
C         54.93216       54.84709       44.49940
C         54.61682       53.40818       44.17980
O         54.08413       52.62230       45.13526
O         54.81257       52.95034       43.06522
H         54.94355       55.26279       41.25232
H         56.39572       55.28082       42.98195
H         54.01928       55.28865       44.93110
H         55.70698       54.86163       45.29769
N         54.65081       57.92973       44.14806
C         54.73354       59.26057       44.73612
C         55.50944       59.31087       46.04736
O         55.79947       60.40909       46.51737
C         53.28634       59.80037       44.98727
C         52.40541       59.06688       46.06341
C         51.87804       57.67435       45.62677
C         50.87026       56.99398       46.55503
N         51.55255       56.12696       47.51398
H         53.73813       57.56765       44.00284
H         55.24301       59.91069       43.99117
H         52.73064       59.79879       44.02226
H         53.37799       60.86267       45.29855
H         51.50077       59.70149       46.19348
H         52.92280       59.02885       47.04508
H         52.68963       56.94153       45.54874
H         51.37076       57.83147       44.65316
H         50.19990       56.34141       45.95411
H         50.24664       57.76445       47.03622
H         51.95943       55.29752       47.01823
H         52.29086       56.67401       47.97744
H         50.91139       55.75954       48.23841
N         55.85334       58.17406       46.71602
C         56.51505       58.16356       48.01887
C         57.09388       56.78712       48.32958
O         57.08018       55.91714       47.46124
C         55.49071       58.56735       49.09409
C         54.38023       57.60197       49.31393
O         53.40442       58.01663       50.12995
O         54.36242       56.49112       48.80207
H         55.54234       57.27402       46.32500
H         57.33567       58.91612       48.04305
H         55.03689       59.53630       48.80978
H         55.95380       58.71664       50.08978
N         57.52302       56.47803       49.58289
C         57.85076       55.12294       49.98524
C         56.67716       54.53300       50.74003
O         56.25514       55.12448       51.72523
H         57.48233       57.19913       50.32124
H         58.75299       55.14964       50.62833
H         58.08594       54.48595       49.10476
N         56.07204       53.38259       50.30667
C         54.85777       52.82704       50.91371
C         55.03443       51.37430       51.41082
O         54.12132       50.85218       52.03403
C         53.74559       52.91028       49.84728
C         52.35924       52.59022       50.34475
N         51.71360       53.44088       51.17369
O         51.79447       51.58118       49.95453
H         56.45140       52.91640       49.46743
H         54.56435       53.44689       51.79063
H         54.02142       52.21810       49.02270
H         53.70970       53.93879       49.42594
H         52.15498       54.31684       51.46516
H         50.75430       53.24527       51.48712
N         56.19296       50.67734       51.19781
C         56.46198       49.35245       51.75171
C         55.66129       48.21267       51.15228
O         55.65504       48.05760       49.93968
H         56.96072       51.12206       50.68009
H         56.35497       49.38187       52.85701
H         57.52233       49.10858       51.53071
N         55.04181       47.30940       51.97873
C         54.36155       46.07968       51.54522
C         53.04075       46.31205       50.83183
O         52.34325       45.34149       50.57838
C         55.29391       45.15904       50.72856
C         56.54899       44.82405       51.49369
C         56.48059       44.02103       52.64420
C         57.79554       45.30384       51.06001
C         57.64443       43.69188       53.34338
C         58.95769       44.98102       51.76679
C         58.88549       44.16673       52.90735
O         60.00146       43.83210       53.58599
H         55.11018       47.46225       52.99613
H         54.07845       45.53144       52.47302
H         55.54112       45.64739       49.76490
H         54.77977       44.20516       50.47433
H         55.52777       43.63916       52.98901
H         57.86535       45.93197       50.18043
H         57.58220       43.06215       54.22181
H         59.91300       45.35981       51.42610
H         60.87833       44.12421       53.29920
N         52.61388       47.56983       50.52353
C         51.28667       47.91605       50.04396
C         50.29855       47.86469       51.20265
O         49.91176       48.93038       51.65355
C         50.88156       47.25303       48.69340
C         51.94788       47.49157       47.58235
C         49.52069       47.79834       48.22567
C         52.36454       48.95878       47.38617
H         53.23468       48.36486       50.69753
H         51.33477       49.00118       49.81641
H         50.76252       46.15332       48.80971
H         51.54925       47.10283       46.61833
H         52.86723       46.91242       47.81246
H         48.73159       47.53042       48.94543
H         49.53589       48.90325       48.13419
H         49.23434       47.35749       47.24732
H         53.05912       49.04192       46.52570
H         51.49095       49.61334       47.19289
H         52.91008       49.33281       48.27800
N         49.89113       46.70087       51.79019
C         49.03022       46.70134       52.97750
C         47.66444       47.33505       52.72045
O         47.05669       47.82091       53.66426
C         48.83043       45.27508       53.51248
O         50.07395       44.67641       53.76498
H         50.22673       45.80303       51.42438
H         49.55045       47.29168       53.76915
H         48.26938       44.69389       52.74441
H         48.24323       45.29783       54.45734
H         49.93487       43.69554       53.69379
N         47.12312       47.36050       51.46116
C         45.82239       47.95222       51.12715
C         45.75251       49.46673       51.34435
O         44.68206       50.04249       51.20400
C         44.69444       47.19766       51.84126
H         47.64436       46.91364       50.69959
H         45.64166       47.80084       50.04065
H         43.70804       47.58820       51.51258
H         44.74400       46.12358       51.55823
H         44.75761       47.28164       52.94356
N         46.86974       50.17911       51.64930
C         46.88964       51.61618       51.85648
C         46.62565       52.37987       50.57842
O         47.34679       52.18986       49.60657
C         48.26863       52.02860       52.39613
H         47.75327       49.68289       51.74081
H         46.14932       51.89552       52.63514
H         49.07775       51.68148       51.71738
H         48.34021       53.13198       52.50802
H         48.42819       51.56605       53.39332
N         45.63865       53.32841       50.55069
C         45.47755       54.34084       49.50680
C         45.27805       53.82030       48.09470
O         45.30376       54.61675       47.16402
C         46.56296       55.41810       49.62000
C         47.98104       54.94535       49.36652
C         48.85806       56.09028       49.56445
O         48.78513       57.05465       48.82729
O         49.71447       56.05907       50.59050
H         45.02419       53.41499       51.37210
H         44.55839       54.92143       49.73720
H         46.52608       55.84201       50.65138
H         46.32491       56.24536       48.91332
H         48.12554       54.52301       48.34826
H         48.30464       54.21922       50.13217
N         44.98247       52.51484       47.85825
C         44.70240       52.03533       46.52462
H         43.84765       52.60168       46.09452
H         45.59495       52.15858       45.87591
H         44.42727       50.96154       46.56782
H         44.90582       51.85184       48.64041
Ca        51.39461       57.41297       50.74396
O         50.48807       56.07072       53.47465
H         49.95125       56.68206       54.03857
H         50.33837       55.17336       53.86456
O         50.24127       59.76034       49.37172
H         49.89325       59.03725       48.80986
H         50.51939       60.42884       48.70155
O         52.55824       60.77272       50.52731
H         52.30934       61.31621       49.74205
H         53.31676       60.25012       50.18742
O         48.45216       57.98193       52.08758
H         47.80947       57.32819       52.46160
H         48.02296       58.30742       51.25706
O         53.29700       56.18671       52.31785
H         53.59105       55.59808       53.05353
H         54.01036       56.12192       51.63878
O         50.70319       59.90983       52.99929
H         50.54751       60.76159       52.51927
H         50.62728       60.14703       53.95755
O         53.45902       58.69988       53.29884
H         54.00673       58.08385       53.84799
H         54.09573       59.39284       52.99491

Ca 1.70



