%chk=loop2.cluster225.chk
%nprocshared=48
%mem=10GB
%nosave
#b3lyp/svp scf=(tight,noincore) Test 
#IOP(5/87=12) Density=Current Pop=(MK,readradii) iop(6/33=2) iop(6/42=6)

loop2.cluster225 

   -2  1 
C         89.79394       48.88028      -15.16839
C         88.34852       48.67182      -14.80908
O         87.95085       49.17223      -13.76685
H         90.41486       48.42638      -14.37065
H         90.12850       48.46611      -16.12921
H         89.99413       49.97135      -15.20753
N         87.45857       47.98236      -15.57974
C         87.73329       47.32517      -16.85813
C         87.30076       45.87175      -16.83527
O         86.26212       45.58566      -16.27084
C         87.09391       48.11649      -18.02050
C         85.65942       48.55550      -17.91389
O         85.20801       49.27187      -18.78925
O         84.88265       48.22763      -16.86733
H         86.49193       47.94443      -15.23017
H         88.79834       47.31088      -17.12266
H         87.21437       47.54086      -18.96525
H         87.67753       49.05571      -18.11539
N         88.07957       44.91213      -17.44799
C         87.77628       43.47956      -17.60841
C         86.59435       43.24606      -18.54055
O         86.78935       42.79708      -19.66191
C         87.63260       42.74943      -16.26874
H         88.96431       45.22716      -17.87298
H         88.65655       43.02471      -18.11953
H         88.57414       42.84622      -15.68852
H         86.79918       43.15415      -15.66114
H         87.44305       41.66842      -16.44772
N         85.34338       43.57786      -18.14351
C         84.17965       43.60633      -19.00300
C         83.97727       45.05457      -19.40509
O         83.83774       45.89539      -18.53879
C         82.95372       42.98403      -18.28236
C         82.67511       43.47300      -16.87692
O         83.53431       43.22181      -15.86843
O         81.61807       44.01419      -16.62635
H         85.22739       43.94321      -17.20982
H         84.34976       43.02261      -19.93319
H         83.10061       41.88905      -18.19713
H         82.05912       43.16638      -18.91771
N         84.05890       45.42828      -20.71398
C         84.03058       46.81816      -21.14783
C         82.67000       47.45627      -21.00568
O         81.90489       47.44048      -21.96026
H         84.22615       44.70574      -21.42973
H         84.29630       46.84810      -22.22641
H         84.81162       47.41010      -20.62467
N         82.30778       48.06749      -19.84413
C         80.98400       48.64238      -19.64098
C         80.95700       49.86904      -18.72997
O         79.87392       50.38786      -18.49279
C         80.02608       47.55417      -19.13515
C         80.52908       46.71281      -17.95229
N         79.39639       45.96874      -17.41139
O         81.08706       47.50782      -16.94885
H         82.95187       48.02067      -19.04700
H         80.57159       49.01440      -20.60586
H         79.82769       46.84396      -19.96630
H         79.05708       48.03022      -18.87210
H         78.95219       45.40233      -18.16888
H         79.71018       45.32564      -16.65715
N         82.09162       50.42592      -18.21874
C         82.06204       51.62023      -17.40032
C         81.41883       51.39286      -16.05242
O         80.97956       50.28677      -15.77556
H         83.00697       50.04258      -18.45152
H         81.53131       52.41863      -17.96156
H         83.10866       51.94496      -17.21018
N         81.29887       52.38671      -15.13385
C         81.62537       53.78332      -15.41440
C         82.64657       54.35347      -14.44446
O         82.96110       55.53525      -14.56274
C         80.30272       54.57932      -15.32991
C         79.23280       54.01143      -16.27457
O         79.80609       54.52591      -14.01480
H         80.86703       52.16449      -14.22396
H         82.04268       53.91914      -16.42959
H         80.51051       55.63264      -15.63461
H         79.63057       55.45475      -13.71688
H         79.59618       53.99973      -17.32306
H         78.95641       52.97309      -15.98395
H         78.31364       54.62902      -16.21568
N         83.16013       53.61114      -13.41758
C         83.95273       54.18267      -12.33429
C         83.15163       55.33254      -11.73121
O         83.54580       56.48032      -11.85676
C         85.42273       54.45611      -12.77497
C         86.00313       53.09210      -13.25706
C         86.23441       55.01178      -11.58049
C         87.44944       53.11231      -13.73621
H         82.90421       52.61630      -13.33521
H         84.06622       53.42506      -11.53510
H         85.46626       55.19164      -13.60824
H         85.39641       52.72495      -14.11269
H         85.92612       52.34466      -12.43599
H         87.30408       55.14511      -11.83394
H         85.86797       56.01249      -11.27632
H         86.15766       54.33431      -10.70222
H         87.71886       52.08772      -14.07383
H         87.56485       53.81112      -14.58920
H         88.14448       53.38464      -12.91786
N         81.94966       55.09864      -11.11925
C         81.47684       53.76085      -10.76018
C         82.25934       53.23242       -9.56740
O         82.83467       52.15791       -9.66892
C         79.93838       53.66370      -10.58850
C         79.22741       54.81359       -9.92164
O         78.28595       55.34527      -10.48931
O         79.58849       55.24897       -8.70458
H         81.41375       55.91596      -10.78829
H         81.65000       53.03917      -11.57978
H         79.70721       52.71008      -10.06629
H         79.48886       53.57147      -11.60276
N         82.32338       53.94026       -8.40542
C         83.05857       53.48032       -7.23008
C         82.04363       53.04975       -6.15414
O         80.86003       53.27291       -6.37300
C         84.07388       54.58898       -6.81943
C         83.46238       55.83923       -6.21083
C         82.92252       56.85660       -7.02149
C         83.46639       56.01311       -4.81364
C         82.38455       58.01180       -6.44079
C         82.92432       57.16701       -4.24030
C         82.38276       58.16471       -5.05222
H         81.82560       54.82993       -8.34513
H         83.64247       52.57653       -7.49696
H         84.69517       54.87687       -7.69645
H         84.83266       54.19669       -6.12718
H         82.93037       56.76653       -8.09946
H         83.88512       55.25676       -4.16610
H         81.97329       58.79255       -7.06785
H         82.92790       57.28873       -3.16442
H         81.96769       59.05939       -4.60502
N         82.38577       52.39113       -4.99121
C         83.73763       52.11367       -4.53899
C         84.44865       51.01833       -5.31256
O         83.82574       50.33848       -6.11851
C         83.54023       51.68686       -3.06953
C         82.18676       52.29807       -2.70540
C         81.40335       52.06312       -3.98293
H         84.29824       53.05225       -4.52648
H         83.40150       50.58376       -3.01512
H         84.37553       51.97415       -2.39382
H         81.71845       51.86176       -1.79625
H         82.30158       53.39616       -2.57390
H         81.17357       50.97529       -4.06610
H         80.45692       52.64319       -4.03425
N         85.75726       50.74670       -5.03829
C         86.47319       49.61620       -5.61370
C         87.92746       49.91621       -6.03879
O         88.73570       49.00372       -5.92985
C         86.40767       48.44257       -4.58458
C         86.74238       48.85059       -3.12899
C         88.11564       49.43056       -2.94348
O         89.20353       48.64579       -3.05091
O         88.24686       50.60976       -2.65321
H         86.23568       51.31678       -4.32619
H         85.96570       49.24716       -6.53413
H         87.02919       47.58232       -4.91603
H         85.35784       48.07612       -4.55749
H         86.63123       47.97698       -2.45324
H         85.98843       49.59762       -2.80111
N         88.36843       51.07053       -6.63384
C         87.61727       52.28138       -6.89646
H         86.60343       52.31149       -6.49082
H         88.17549       53.14401       -6.46924
H         87.54530       52.42657       -7.99205
H         89.35467       51.08792       -6.93937
Ca        82.92595       46.39380      -16.12803
O         84.95295       46.48101      -13.63683
H         85.78348       46.84936      -13.24416
H         84.63172       45.82691      -12.96780
O         82.66840       48.22164      -14.16875
H         82.58858       48.89399      -13.45243
H         81.92172       48.42035      -14.78117
O         81.79889       45.41296      -13.65361
H         80.85229       45.34459      -13.93511
H         81.77224       45.91382      -12.80024

Ca 1.70



