%chk=loop2.cluster188.chk
%nprocshared=48
%mem=10GB
%nosave
#b3lyp/svp scf=(tight,noincore) Test 
#IOP(5/87=12) Density=Current Pop=(MK,readradii) iop(6/33=2) iop(6/42=6)

loop2.cluster188 

   -2  1 
C        105.17363       68.71250       -1.78062
C        103.67697       68.56467       -1.83795
O        103.20293       67.43953       -1.78545
H        105.48102       69.35240       -0.92689
H        105.64916       67.71634       -1.64541
H        105.53949       69.14576       -2.73384
N        102.83130       69.63381       -1.91268
C        103.24550       71.02639       -1.83298
C        102.66974       71.89645       -2.94459
O        101.64815       71.55876       -3.51527
C        102.84373       71.57199       -0.44415
C        101.50477       71.13907        0.14962
O        100.34735       71.05787       -0.54329
O        101.48314       70.79414        1.32025
H        101.82331       69.44611       -1.92229
H        104.34817       71.12819       -1.91509
H        102.97475       72.67127       -0.37603
H        103.59467       71.14745        0.26116
N        103.30390       73.06592       -3.28279
C        102.83061       74.06388       -4.25506
C        101.71603       74.96817       -3.73042
O        101.58579       76.08409       -4.21509
C        102.45363       73.46548       -5.61330
H        104.21253       73.26079       -2.83347
H        103.69941       74.74222       -4.42465
H        102.27630       74.27684       -6.35155
H        103.26764       72.81140       -5.98621
H        101.51473       72.87897       -5.53739
N        100.89367       74.56380       -2.72528
C         99.83891       75.38803       -2.14662
C         99.32686       74.69198       -0.89148
O         98.82567       73.57979       -0.96182
C         98.70885       75.75897       -3.14074
C         98.29223       74.69136       -4.11927
O         98.13910       73.41603       -3.73098
O         98.08530       74.99132       -5.28543
H        101.03304       73.63404       -2.32094
H        100.28365       76.34777       -1.80679
H         99.04238       76.62626       -3.75009
H         97.82708       76.11605       -2.56540
N         99.53282       75.28181        0.31837
C         99.34048       74.60164        1.58327
C         97.94885       74.77220        2.11129
O         97.41414       75.86941        2.05040
H         99.98919       76.20482        0.34800
H        100.01272       75.09296        2.31689
H         99.66439       73.53804        1.53329
N         97.33192       73.72876        2.72952
C         95.98635       73.82590        3.27584
C         95.97738       73.70153        4.78675
O         96.99308       73.42985        5.40568
C         95.11479       72.72431        2.64734
C         94.71888       73.07055        1.24238
N         93.57445       73.75362        1.01431
O         95.41957       72.72999        0.30531
H         97.83939       72.83724        2.83438
H         95.53574       74.82154        3.07116
H         94.17275       72.58292        3.21623
H         95.64428       71.74522        2.67870
H         92.97674       74.04752        1.80136
H         93.28771       73.98569        0.05304
N         94.80285       73.93643        5.43516
C         94.65693       73.81313        6.87723
C         93.23264       74.11520        7.31448
O         92.47109       74.67704        6.54481
H         93.98688       74.19206        4.86532
H         95.36341       74.48222        7.41380
H         94.88651       72.77734        7.14361
N         92.77134       73.76530        8.54679
C         93.54767       73.04204        9.54813
C         93.56178       71.52000        9.32091
O         94.22965       70.83483       10.07742
C         93.03901       73.43559       10.96264
C         93.37346       74.90395       11.26151
O         91.64613       73.26277       11.06387
H         91.78765       73.99910        8.76052
H         94.61277       73.35988        9.50264
H         93.55996       72.83977       11.74689
H         91.47944       72.34172       11.38724
H         94.47599       75.04871       11.26358
H         92.93001       75.58527       10.50396
H         92.98525       75.18904       12.26169
N         92.88867       70.93738        8.27420
C         92.89331       69.50020        7.94684
C         92.27819       68.67750        9.07378
O         92.87074       68.62639       10.14175
C         94.30618       68.94394        7.57040
C         95.06627       69.81785        6.54966
C         94.20044       67.50089        7.03453
C         94.28192       70.16969        5.28507
H         92.33711       71.54085        7.65094
H         92.28283       69.39733        7.03155
H         94.94912       68.90469        8.47731
H         96.01015       69.30529        6.26298
H         95.37162       70.74960        7.04781
H         93.76557       66.82270        7.79705
H         93.56935       67.45612        6.12432
H         95.20807       67.11012        6.77628
H         93.94432       69.26360        4.74466
H         93.40455       70.80643        5.52366
H         94.94447       70.74829        4.61866
N         91.10617       67.98682        8.96027
C         90.26632       67.89826        7.76915
C         90.76101       66.83035        6.81422
O         90.97745       67.12319        5.64441
C         88.76565       67.68291        8.14150
C         88.32297       66.59058        9.10795
O         89.18938       65.81557        9.78408
O         87.13152       66.45592        9.32863
H         90.79383       67.49059        9.80183
H         90.24339       68.87028        7.22889
H         88.21051       67.53448        7.18773
H         88.40235       68.63106        8.59009
N         90.88498       65.54576        7.23986
C         91.14540       64.42288        6.36306
C         89.81414       63.71223        6.09352
O         88.86194       63.97137        6.82249
C         92.17944       63.46955        7.03437
C         91.65984       62.71805        8.25728
C         91.63744       63.31196        9.53594
C         91.21591       61.38804        8.11986
C         91.17418       62.58959       10.64411
C         90.75213       60.67427        9.23015
C         90.73220       61.27347       10.49058
H         90.67204       65.33997        8.20875
H         91.56690       64.80421        5.41224
H         93.11396       64.01191        7.29212
H         92.50734       62.71409        6.30461
H         91.98948       64.32413        9.68239
H         91.22411       60.90630        7.15069
H         91.16290       63.04778       11.62537
H         90.41072       59.65336        9.11333
H         90.37828       60.71553       11.34934
N         89.64669       62.78932        5.09454
C         90.63551       62.45208        4.08358
C         90.92521       63.60405        3.12018
O         90.35079       64.67614        3.25140
C         89.97448       61.28659        3.32525
C         88.99930       60.71362        4.34522
C         88.45841       61.97574        4.99998
H         91.54753       62.07884        4.57510
H         89.34672       61.68922        2.50045
H         90.69621       60.55244        2.90357
H         88.21956       60.04613        3.91936
H         89.58045       60.15176        5.11088
H         87.72968       62.48899        4.33426
H         87.99675       61.73089        5.98282
N         91.78434       63.40624        2.08271
C         92.09078       64.40180        1.06215
C         93.60085       64.68484        0.89093
O         93.92501       65.25695       -0.14131
C         91.52468       63.84297       -0.27799
C         89.99429       63.96838       -0.41447
C         89.58937       65.32000       -0.95742
O         89.89421       66.45072       -0.29416
O         89.00116       65.39178       -2.02644
H         92.21214       62.47317        1.97980
H         91.61231       65.38695        1.25454
H         91.81881       62.77258       -0.33449
H         91.95777       64.33198       -1.17741
H         89.48232       63.75109        0.54654
H         89.65533       63.21337       -1.15639
N         94.60513       64.42129        1.79274
C         94.48831       63.99319        3.17415
H         94.52394       64.88988        3.82814
H         93.62698       63.37679        3.43148
H         95.37805       63.37882        3.42821
H         95.55257       64.72318        1.51453
Ca        99.23429       71.19727       -2.50226
O         96.54616       69.79920       -3.21284
H         95.95072       69.48625       -2.48628
H         96.70896       68.99412       -3.76583
O         97.57391       70.51752       -0.07391
H         97.98074       70.81060        0.77955
H         97.22394       71.34935       -0.47734
O         99.32062       70.21427       -5.14646
H         99.35988       69.24374       -5.33382
H         99.82064       70.63471       -5.88908
O         99.72250       68.31125       -2.55581
H        100.14833       68.12457       -3.42919
H        100.26578       67.79931       -1.90585

Ca 1.70



