%chk=loop3.cluster29.chk
%nprocshared=48
%mem=10GB
%nosave
#b3lyp/svp scf=(tight,noincore) Test 
#IOP(5/87=12) Density=Current Pop=(MK,readradii) iop(6/33=2) iop(6/42=6)

loop3.cluster29 

   0  1 
C         60.03032       46.23740       35.27561
C         59.69672       45.35428       36.43229
O         60.42219       44.40922       36.70014
H         61.02209       45.97103       34.85439
H         59.25312       46.11227       34.49377
H         60.05079       47.29632       35.60994
N         58.61320       45.63242       37.20063
C         58.25454       44.81476       38.34469
C         57.64676       43.50320       37.87369
O         56.72192       43.52296       37.07213
C         57.28941       45.58165       39.24316
C         57.09466       44.91482       40.56219
O         56.30746       45.50350       41.45272
O         57.66759       43.87847       40.85521
H         58.06931       46.48709       36.99981
H         59.16993       44.65010       38.95993
H         56.30839       45.72679       38.74160
H         57.72489       46.58023       39.46862
N         58.12527       42.32052       38.34807
C         57.74034       41.01945       37.80505
C         56.75042       40.24811       38.65742
O         56.16146       39.29995       38.15673
C         59.00641       40.17464       37.58620
C         60.06697       40.87271       36.72825
C         59.49547       41.37846       35.40776
C         60.60540       41.78016       34.44473
N         60.02844       42.29521       33.20667
H         58.84885       42.35664       39.06710
H         57.21409       41.17497       36.83901
H         58.72914       39.21278       37.10868
H         59.47232       39.93866       38.56971
H         60.88508       40.14086       36.55591
H         60.48737       41.74146       37.26542
H         58.84625       42.26045       35.60564
H         58.88699       40.57999       34.93588
H         61.22093       40.88008       34.22268
H         61.25991       42.55352       34.90324
H         60.79816       42.51024       32.53474
H         59.39361       41.57913       32.78316
H         59.48833       43.16911       33.40545
N         56.50814       40.59938       39.94464
C         55.44713       39.99810       40.76040
C         54.46648       41.05295       41.26469
O         53.46174       40.68018       41.85535
C         56.04448       39.16414       41.91360
C         57.10686       39.87694       42.69607
O         57.99709       39.22412       43.21049
O         57.19017       41.22185       42.64665
H         57.09480       41.33464       40.35226
H         54.84210       39.29271       40.14848
H         56.53390       38.28563       41.43930
H         55.26228       38.76603       42.59712
N         54.65497       42.38428       41.01604
C         53.68823       43.39702       41.39077
C         53.69471       43.73509       42.86297
O         52.70894       44.27408       43.34435
H         55.47079       42.69998       40.48511
H         52.67990       43.09172       41.03901
H         53.93959       44.34054       40.86333
N         54.80254       43.52207       43.62980
C         54.85572       43.89112       45.04320
C         55.03653       45.39849       45.27038
O         55.06255       45.81982       46.41873
C         55.94195       43.05311       45.76257
C         57.36628       43.30592       45.34214
N         58.36951       42.59578       45.90387
O         57.62432       44.14815       44.50207
H         55.62471       43.07620       43.20285
H         53.89857       43.58099       45.51453
H         55.72051       41.97898       45.57434
H         55.87527       43.23376       46.85522
H         58.17044       41.88369       46.61995
H         59.34648       42.76860       45.62971
N         55.19770       46.26313       44.22481
C         55.40393       47.69277       44.37259
C         56.83985       48.11857       44.13482
O         57.12582       49.29182       44.31078
H         55.17761       45.89732       43.28022
H         55.15385       48.01798       45.40175
H         54.72908       48.23259       43.67171
N         57.80931       47.22581       43.76736
C         59.21421       47.61503       43.71163
C         60.06290       46.68823       42.83429
O         59.62618       45.61155       42.46668
C         59.76938       47.81303       45.14840
C         59.58454       46.64400       46.10758
C         58.37105       46.46671       46.80812
C         60.65234       45.77455       46.37425
C         58.24090       45.44447       47.75865
C         60.51711       44.75008       47.31957
C         59.31432       44.58900       48.02216
O         59.18438       43.62002       48.95289
H         57.55337       46.26475       43.54230
H         59.27025       48.58010       43.16379
H         59.26753       48.68508       45.62126
H         60.84107       48.09810       45.09961
H         57.53591       47.13332       46.64254
H         61.59209       45.89604       45.85401
H         57.30989       45.32351       48.30151
H         61.35053       44.08712       47.51290
H         59.91750       43.02960       49.18045
N         61.27522       47.13987       42.37998
C         62.09642       46.43492       41.38892
C         63.42084       46.04433       42.03911
O         63.97233       46.82416       42.79786
C         62.38211       47.36824       40.16122
C         61.09811       47.93257       39.49662
C         63.22489       46.62878       39.09355
C         61.40866       49.18168       38.65280
H         61.60866       48.05816       42.70445
H         61.57838       45.52623       41.01334
H         62.95811       48.23647       40.54953
H         60.37948       48.27074       40.26973
H         60.59607       47.15375       38.87969
H         63.41704       47.24848       38.19696
H         64.21661       46.35111       39.49618
H         62.69993       45.70671       38.76015
H         60.47703       49.58992       38.21042
H         61.84847       49.96822       39.30632
H         62.11968       48.98177       37.82709
N         64.01313       44.85998       41.71133
C         65.30387       44.42195       42.23590
C         66.30173       44.25627       41.10067
O         65.96511       44.51684       39.96070
C         65.12092       43.08355       42.96717
O         64.75600       42.07687       42.06132
H         63.54948       44.25633       41.03556
H         65.70841       45.16462       42.95430
H         64.33360       43.19592       43.74108
H         66.07586       42.80747       43.46645
H         64.74790       41.22891       42.57610
N         67.56853       43.82416       41.36111
C         68.54976       43.60320       40.30241
C         68.19824       42.40085       39.42665
O         68.57725       42.39224       38.26109
C         69.94009       43.42882       40.91922
H         67.85128       43.67787       42.33909
H         68.59646       44.52096       39.67386
H         70.15359       44.29563       41.58355
H         69.98844       42.49989       41.52523
H         70.72146       43.40043       40.13081
N         67.51648       41.32314       39.93035
C         67.13065       40.17743       39.10183
C         65.91327       40.48203       38.23483
O         65.59239       39.69520       37.35562
C         66.80159       38.97192       39.98267
H         67.26488       41.31717       40.93062
H         67.99908       39.89828       38.46158
H         67.66428       38.74608       40.64357
H         65.91142       39.19036       40.61147
H         66.59241       38.07683       39.35765
N         65.18788       41.61651       38.44507
C         64.06628       42.03166       37.61701
C         64.52987       43.12276       36.65924
O         63.87377       43.33512       35.64879
C         62.93330       42.55379       38.53048
C         62.38862       41.45387       39.46617
C         61.36467       41.94385       40.45329
O         61.66221       42.92390       41.31922
O         60.28821       41.38309       40.54046
H         65.46491       42.24682       39.20231
H         63.69957       41.18426       36.99492
H         62.12008       42.99583       37.92986
H         63.35719       43.37680       39.12875
H         63.21894       41.02424       40.05808
H         61.94324       40.64139       38.85577
N         65.67100       43.83815       36.90172
C         66.19745       44.84351       36.00876
H         67.23826       44.56110       35.74245
H         65.60444       44.94353       35.07877
H         66.22368       45.82185       36.53415
H         66.20736       43.67640       37.75744
Ca        59.05797       42.46845       42.87105
O         61.41775       43.49413       44.30283
H         61.56433       44.20007       43.62699
H         62.19714       43.55952       44.90753
O         60.75862       40.68863       44.19851
H         60.82028       40.21953       45.06444
H         59.93161       40.33098       43.80258

Ca 1.70



