%chk=loop4.cluster13.chk
%nprocshared=48
%mem=10GB
%nosave
#b3lyp/svp scf=(tight,noincore) Test 
#IOP(5/87=12) Density=Current Pop=(MK,readradii) iop(6/33=2) iop(6/42=6)

loop4.cluster13 

   -3  1 
C         47.81885       25.98319       41.14765
C         47.94579       25.40358       42.52915
O         48.60578       25.99833       43.36856
H         47.32852       26.97707       41.19395
H         48.82755       26.09213       40.69522
H         47.21690       25.32359       40.48622
N         47.34424       24.21735       42.82794
C         47.46467       23.53711       44.11402
C         46.81485       24.33698       45.22834
O         47.49092       24.80151       46.13657
C         48.91779       23.13019       44.43536
C         49.61492       22.53682       43.25084
O         50.77368       23.07855       42.83603
O         49.13992       21.58062       42.65779
H         46.79216       23.74702       42.09433
H         46.90446       22.57799       44.03468
H         48.89722       22.38191       45.25886
H         49.51557       24.00090       44.77439
N         45.46392       24.48740       45.22379
C         44.71322       25.18383       46.26536
C         43.86350       24.13128       46.96182
O         43.24808       23.33557       46.26565
C         43.84548       26.29713       45.61908
C         44.76499       27.28556       44.85868
C         42.98695       27.02583       46.67323
C         44.00391       28.38981       44.13120
H         44.93031       24.04422       44.45957
H         45.40793       25.66334       46.98258
H         43.15361       25.82251       44.88757
H         45.32914       26.72099       44.08606
H         45.50098       27.74736       45.55417
H         42.31999       26.31299       47.20190
H         43.62630       27.54875       47.41423
H         42.32237       27.77278       46.19552
H         43.22118       27.94825       43.47912
H         43.53881       29.09283       44.85194
H         44.71250       28.96816       43.50315
N         43.80615       23.98666       48.31726
C         44.29222       24.95612       49.29547
C         45.61070       24.56875       49.92291
O         46.47347       25.42603       50.03015
C         43.22418       25.25414       50.38730
C         42.67790       24.10284       51.20913
O         41.80764       24.36402       52.20125
O         42.98853       22.94608       50.98684
H         43.29942       23.16430       48.66920
H         44.44953       25.95092       48.83486
H         42.35379       25.75236       49.90951
H         43.67330       25.98160       51.10048
N         45.83779       23.31033       50.38759
C         46.98731       22.97624       51.20999
C         46.78559       23.56497       52.58942
O         45.75843       23.30478       53.20122
H         45.16239       22.56612       50.18170
H         47.92795       23.32246       50.72402
H         47.03981       21.87554       51.32166
N         47.70843       24.41262       53.11674
C         47.47461       25.19547       54.32904
C         47.35593       26.67711       53.97131
O         47.21806       27.49493       54.87087
C         48.56404       24.94431       55.41424
C         50.01008       25.20259       55.05761
O         50.35774       25.40576       53.90977
O         50.94432       25.15786       56.02542
H         48.56518       24.59069       52.57532
H         46.50688       24.91900       54.80585
H         48.50435       23.89289       55.76628
H         48.31650       25.59237       56.28448
N         47.37538       27.09659       52.66563
C         47.37460       28.49582       52.28272
C         48.70866       29.15033       52.57475
O         48.83539       30.35036       52.38741
H         47.42657       26.41354       51.90833
H         46.53881       29.01784       52.79281
H         47.21570       28.57429       51.18431
N         49.76667       28.39630       52.99378
C         51.08021       28.91125       53.32191
C         51.70400       29.55258       52.10699
O         52.24222       30.64960       52.20435
C         51.00626       29.79840       54.58389
C         50.54613       28.96595       55.79849
C         50.51562       29.74807       57.08644
N         50.32025       29.10131       58.25856
O         50.68503       30.95889       57.08370
H         49.65649       27.38862       53.06262
H         51.73242       28.04054       53.56578
H         50.31741       30.65506       54.41895
H         52.01753       30.19918       54.80944
H         51.26820       28.13232       55.92791
H         49.53852       28.52767       55.62766
H         50.20365       28.07700       58.27737
H         50.31764       29.62209       59.14781
N         51.69508       28.88494       50.91394
C         52.27313       29.43108       49.69561
C         53.52621       28.65154       49.36346
O         53.47322       27.42975       49.25751
C         51.27033       29.41128       48.51157
C         49.91232       30.01911       48.89008
C         51.85911       30.20191       47.32858
H         51.25966       27.94793       50.87003
H         52.55184       30.49449       49.86375
H         51.08380       28.35978       48.19649
H         49.23303       29.99958       48.01005
H         49.42893       29.42247       49.69109
H         50.02686       31.06831       49.23423
H         51.15805       30.20380       46.46868
H         52.04526       31.25710       47.63065
H         52.82054       29.76153       46.99111
N         54.71037       29.31072       49.23859
C         55.99370       28.65166       49.05995
C         56.75014       29.26859       47.88715
O         56.52461       30.42952       47.56290
C         56.77428       28.86429       50.36204
C         58.07082       28.10768       50.41896
N         58.07412       26.75561       50.48964
O         59.12683       28.72044       50.43960
H         54.70998       30.33702       49.34725
H         55.85352       27.55650       48.89495
H         56.15374       28.53190       51.22382
H         56.95572       29.95574       50.47427
H         57.18874       26.22777       50.50942
H         58.96409       26.24092       50.55847
N         57.64339       28.52804       47.17964
C         58.27992       29.01056       45.95063
C         58.67200       27.78396       45.16351
O         59.83846       27.54222       44.88159
C         59.46042       29.96396       46.24777
C         59.99929       30.74371       45.05330
C         59.46604       30.62771       43.74755
C         61.04175       31.65988       45.27540
C         59.94248       31.43787       42.71355
C         61.51406       32.46776       44.23633
C         60.95278       32.37022       42.95637
O         61.36709       33.17784       41.95919
H         57.76048       27.53586       47.45054
H         57.50642       29.55147       45.36080
H         60.27854       29.39279       46.74049
H         59.10657       30.73005       46.96965
H         58.66905       29.93817       43.51663
H         61.47358       31.76309       46.26321
H         59.50811       31.35512       41.72466
H         62.30436       33.18163       44.43068
H         62.01763       33.87847       42.10994
N         57.68557       26.89439       44.89660
C         57.92749       25.52339       44.50554
C         58.14562       25.37010       43.00166
O         59.18927       24.84329       42.64334
C         56.78027       24.65942       45.08577
C         56.90648       23.14045       44.91985
C         58.00814       22.53520       45.74867
O         57.70110       21.68501       46.74828
O         59.17773       22.78768       45.51148
H         56.73878       27.14318       45.22431
H         58.84254       25.17889       45.03583
H         55.82442       24.97602       44.63730
H         56.69224       24.87334       46.17663
H         57.02530       22.86972       43.85079
H         55.94827       22.70679       45.28019
N         57.24287       25.74452       42.03533
C         55.96115       26.41921       42.25902
C         55.81578       27.66149       41.38507
O         56.68760       27.95008       40.57470
C         54.79673       25.43653       41.99753
C         54.72248       24.95798       40.54296
C         53.63235       23.94859       40.35700
O         52.34864       24.27090       40.59000
O         53.90667       22.82343       39.97302
H         57.48852       25.51531       41.05950
H         55.86434       26.75410       43.29598
H         53.83454       25.92136       42.27180
H         54.91897       24.55405       42.65820
H         55.68187       24.48042       40.26048
H         54.53764       25.81906       39.86631
N         54.69575       28.43228       41.49042
C         54.44939       29.57242       40.63331
H         53.48314       30.04476       40.91526
H         55.25745       30.32520       40.73935
H         54.37519       29.24393       39.57390
H         53.98255       28.19264       42.19393
Ca        50.81704       22.66804       40.17601
O         51.70299       21.88980       37.63470
H         52.35233       22.16371       36.94071
H         50.88309       21.64549       37.13650
O         51.92388       19.82546       41.32914
H         52.84075       19.51170       41.53055
H         51.38284       18.99723       41.28579
O         49.52871       20.21147       39.50584
H         49.35924       19.63997       38.71642
H         49.11231       19.72978       40.26376

Ca 1.70



