%chk=loop1.cluster21.chk
%nprocshared=48
%mem=10GB
%nosave
#b3lyp/svp scf=(tight,noincore) Test 
#IOP(5/87=12) Density=Current Pop=(MK,readradii) iop(6/33=2) iop(6/42=6)

loop1.cluster21 

   0  1 
C         37.51314        0.27059       37.58205
C         36.84339       -1.03754       37.86330
O         36.48795       -1.73060       36.92190
H         38.43600        0.08514       36.99634
H         36.83036        0.92139       36.99367
H         37.77905        0.79974       38.52059
N         36.59838       -1.43154       39.14696
C         35.88829       -2.66360       39.46761
C         34.45295       -2.35598       39.86700
O         33.99987       -2.78782       40.91152
C         36.64735       -3.53467       40.50812
C         36.94490       -2.88669       41.84346
O         37.52900       -3.61617       42.81255
O         36.66169       -1.72052       42.06461
H         36.86728       -0.79230       39.90687
H         35.79375       -3.29446       38.55952
H         37.60914       -3.87669       40.06957
H         36.03207       -4.44104       40.70466
N         33.67139       -1.62433       39.01348
C         32.23783       -1.43101       39.21745
C         31.51391       -1.67715       37.89939
O         31.67314       -0.85871       37.00716
C         31.94987        0.02459       39.64324
C         32.36415        0.28933       41.09011
C         32.08672        1.74300       41.49083
C         32.42319        1.95432       42.97190
N         32.25956        3.35383       43.36103
H         34.09687       -1.21907       38.17102
H         31.86403       -2.10186       40.00635
H         30.85575        0.21601       39.57587
H         32.46953        0.72686       38.95076
H         33.44630        0.07533       41.22331
H         31.77612       -0.38963       41.74609
H         31.01678        1.99690       41.31865
H         32.71552        2.41275       40.86332
H         33.47695        1.64964       43.15191
H         31.75978        1.31549       43.59886
H         31.25258        3.63045       43.30729
H         32.59403        3.47144       44.34480
H         32.83115        3.96961       42.73805
N         30.70552       -2.75437       37.64547
C         30.52966       -3.96938       38.44190
C         29.73259       -3.79556       39.73327
O         29.55323       -2.66707       40.16763
C         31.87626       -4.68367       38.64834
C         32.68199       -4.71097       37.38450
O         32.17487       -5.20213       36.24768
O         33.80334       -4.23543       37.37053
H         30.25490       -2.76957       36.71522
H         29.90073       -4.62212       37.79750
H         31.71268       -5.70689       38.99426
H         32.47572       -4.18782       39.42856
N         29.12437       -4.84527       40.37546
C         29.11250       -6.22918       39.90295
C         29.27095       -7.23422       41.03128
O         28.91234       -6.91681       42.15580
H         28.53825       -4.62412       41.19587
H         29.76931       -6.42758       39.05078
H         28.10065       -6.43175       39.49537
N         29.65132       -8.52692       40.80815
C         30.18280       -9.01422       39.54076
C         31.54722       -8.40589       39.26324
O         31.83659       -8.14036       38.10927
C         30.17742      -10.56452       39.46946
C         30.85824      -11.31450       40.58965
O         31.57032      -10.67662       41.53509
O         30.72691      -12.52549       40.66089
H         29.58106       -9.18757       41.59618
H         29.49699       -8.71689       38.71343
H         30.60312      -10.90551       38.49759
H         29.10948      -10.87287       39.48468
N         32.42700       -8.13090       40.27812
C         33.72368       -7.49316       40.07855
C         34.50890       -8.18518       39.00441
O         34.72252       -9.38602       39.09351
H         32.16825       -8.36942       41.24357
H         34.28619       -7.49752       41.03524
H         33.58964       -6.43200       39.80391
N         34.92964       -7.48107       37.91632
C         35.49814       -8.13079       36.75321
C         36.43014       -7.17155       36.04678
O         35.97973       -6.31932       35.29461
C         34.34506       -8.66572       35.86490
C         34.81883       -9.44129       34.64718
O         33.54292       -7.61109       35.41292
H         34.75533       -6.46762       37.87603
H         36.11653       -8.98949       37.09302
H         33.73377       -9.37451       36.47314
H         32.78282       -7.52558       36.03642
H         35.41536      -10.31902       34.96383
H         33.92662       -9.79277       34.08317
H         35.42224       -8.79151       33.97997
N         37.76093       -7.21389       36.32069
C         38.72478       -6.34114       35.67771
C         39.81568       -7.20747       35.07166
O         40.97894       -7.07638       35.42610
C         39.16981       -5.20391       36.65291
C         40.06759       -4.17659       35.90994
C         39.79307       -5.72064       37.96280
C         40.44313       -2.96298       36.75803
H         38.10353       -7.88311       37.02608
H         38.25166       -5.80553       34.82351
H         38.24076       -4.66044       36.94329
H         39.50518       -3.80197       35.02581
H         41.00454       -4.64206       35.54294
H         40.74744       -6.25235       37.78566
H         39.97852       -4.87920       38.66181
H         39.08680       -6.39513       38.48824
H         39.53138       -2.47616       37.16265
H         41.11238       -3.25855       37.59155
H         40.99285       -2.23065       36.12994
N         39.49048       -8.09296       34.08315
C         40.49669       -8.80372       33.29779
C         40.57277       -8.20900       31.88991
O         41.32639       -8.70601       31.06596
C         40.22922      -10.33018       33.27124
C         39.07007      -10.77242       32.36983
O         39.99197      -10.79990       34.57478
H         38.50120       -8.16836       33.79465
H         41.50060       -8.67121       33.75723
H         41.13608      -10.81678       32.83898
H         40.85828      -11.10428       34.94743
H         38.09480      -10.39658       32.73793
H         39.22535      -10.42978       31.32497
H         39.04341      -11.88358       32.34219
N         39.82867       -7.10650       31.56959
C         39.80914       -6.43362       30.28219
C         39.12882       -7.25884       29.20414
O         38.89991       -8.44791       29.37870
C         41.19888       -5.89624       29.82500
C         42.03153       -5.37559       31.01289
O         40.97937       -4.87219       28.88039
H         39.24175       -6.66658       32.28957
H         39.15770       -5.54348       30.44560
H         41.78860       -6.70801       29.34212
H         41.77862       -4.28828       28.82547
H         42.94858       -4.86180       30.65464
H         41.43806       -4.68001       31.63941
H         42.37662       -6.22814       31.63431
N         38.74033       -6.63859       28.05900
C         38.22457       -7.31642       26.88678
C         36.71419       -7.27517       26.60929
O         36.32508       -8.09404       25.78577
C         39.03495       -6.83047       25.65540
C         40.30552       -7.66378       25.51452
C         41.13672       -7.26906       24.29645
C         42.30841       -8.24885       24.15432
N         42.97246       -8.10017       22.86184
H         38.94099       -5.64645       27.97683
H         38.37908       -8.41211       27.01676
H         39.27287       -5.74306       25.74458
H         38.45462       -6.95036       24.71687
H         39.97191       -8.71447       25.35920
H         40.92177       -7.60982       26.43746
H         41.52367       -6.22873       24.39939
H         40.49446       -7.32093       23.39120
H         41.94492       -9.29912       24.23539
H         43.02367       -8.06886       24.98756
H         43.10475       -7.09281       22.61797
H         43.90227       -8.57574       22.90053
H         42.39049       -8.56483       22.12575
N         35.76078       -6.44895       27.15413
C         35.92935       -5.24936       27.96305
C         36.89735       -4.26806       27.36003
O         37.76502       -3.74144       28.04485
C         35.99331       -5.49153       29.48298
C         34.60190       -5.87072       30.03261
C         34.56552       -5.67563       31.51291
O         34.62398       -4.54527       31.97390
O         34.45526       -6.73258       32.33585
H         34.79643       -6.61011       26.82150
H         34.99104       -4.66744       27.84251
H         36.27096       -4.52309       29.94964
H         36.74619       -6.24627       29.78627
H         34.34969       -6.91321       29.74765
H         33.80709       -5.20395       29.62425
N         36.71386       -3.88671       26.07041
C         37.54931       -2.89788       25.43846
H         38.58085       -3.29077       25.32631
H         37.13678       -2.66069       24.43604
H         37.55916       -1.96962       26.04788
H         35.92822       -4.28714       25.53475
Ca        33.60314       -5.05954       34.51968
O         35.27111       -2.81631       34.43677
H         34.83318       -2.49989       35.26590
H         35.20265       -2.05184       33.81317
O         32.10068       -2.82338       34.20672
H         31.13496       -3.02454       34.28322
H         32.15907       -1.84100       34.11621
O         31.47358       -6.19865       33.41169
H         30.93531       -5.77244       32.70053
H         31.07769       -7.09325       33.55215

Ca 1.70



