%chk=loop3.cluster201.chk
%nprocshared=48
%mem=10GB
%nosave
#b3lyp/svp scf=(tight,noincore) Test 
#IOP(5/87=12) Density=Current Pop=(MK,readradii) iop(6/33=2) iop(6/42=6)

loop3.cluster201 

   0  1 
C         57.71273       38.62426       50.03013
C         58.09002       38.05103       51.35474
O         58.07767       36.83418       51.51022
H         56.83034       39.28593       50.16323
H         58.55953       39.21341       49.62331
H         57.44797       37.81591       49.31662
N         58.40506       38.87560       52.38988
C         58.67291       38.35182       53.71963
C         58.35048       39.38100       54.79959
O         58.02204       40.51975       54.47524
C         60.12944       37.84539       53.77832
C         60.34169       36.86521       54.87811
O         59.84243       35.75220       54.82439
O         61.10580       37.20156       55.91626
H         58.37079       39.89596       52.22919
H         57.96249       37.51049       53.89123
H         60.80628       38.72201       53.88989
H         60.41884       37.31362       52.84818
N         58.35579       39.03264       56.11450
C         57.90576       39.92533       57.17563
C         59.01977       40.28716       58.15083
O         58.79573       41.10872       59.02610
C         56.71347       39.25447       57.87536
C         55.58604       38.99907       56.86020
C         54.37576       38.35877       57.52668
C         53.22552       38.21756       56.52431
N         52.05777       37.61381       57.16066
H         58.60922       38.06608       56.37275
H         57.55918       40.89661       56.75519
H         56.33367       39.90753       58.68983
H         57.03708       38.28501       58.31901
H         55.93489       38.32259       56.04711
H         55.28831       39.96997       56.40652
H         54.03892       39.01167       58.36036
H         54.65894       37.36309       57.93385
H         53.54232       37.59789       55.65354
H         52.95170       39.22776       56.15007
H         51.22671       37.70548       56.53542
H         52.23378       36.60754       57.31818
H         51.85918       38.05752       58.08536
N         60.25162       39.70930       58.04474
C         61.39125       40.05810       58.88970
C         62.67485       40.31187       58.06223
O         63.55955       40.99437       58.55914
C         61.55113       38.96510       59.96562
C         61.82543       37.64020       59.33123
O         62.92546       37.43466       58.86163
O         60.85467       36.73858       59.10356
H         60.36358       38.94557       57.38525
H         61.17097       41.00345       59.43222
H         60.60383       38.91503       60.54529
H         62.37464       39.20635       60.67182
N         62.83858       39.80685       56.79679
C         63.95845       40.11806       55.92038
C         64.73106       38.89746       55.44444
O         65.49218       39.03505       54.49692
H         62.12353       39.20781       56.39040
H         64.65275       40.86748       56.34740
H         63.50146       40.56308       55.00746
N         64.56357       37.66686       56.01597
C         65.11069       36.44400       55.44607
C         63.89318       35.55649       55.04534
O         63.41364       34.79726       56.13759
C         66.12647       35.77131       56.41139
C         66.61961       34.41479       55.95044
N         67.69873       34.29498       55.14241
O         66.06469       33.40756       56.35890
H         63.96743       37.57637       56.83804
H         65.67595       36.68896       54.52238
H         65.67871       35.64793       57.41766
H         67.00367       36.43955       56.55613
H         68.21683       35.12551       54.82509
H         68.02634       33.35941       54.85298
N         64.25822       34.65684       53.93249
C         63.06607       34.12955       53.25211
C         62.53097       32.87892       53.91348
O         61.51608       32.36199       53.47090
H         64.80578       35.18930       53.21870
H         63.33905       33.84880       52.21073
H         62.27757       34.91381       53.19007
N         63.18436       32.32021       54.96918
C         62.73720       31.13203       55.66456
C         61.35487       31.33433       56.27364
O         61.12449       32.31153       56.96933
C         63.76114       30.77119       56.75536
C         63.37108       29.51809       57.48327
C         63.60349       28.26261       56.90260
C         62.76252       29.59951       58.74403
C         63.24525       27.09831       57.58634
C         62.38974       28.43653       59.41833
C         62.63766       27.18058       58.84466
O         62.29738       26.05081       59.49568
H         64.06012       32.73981       55.28627
H         62.71601       30.28975       54.94189
H         63.84432       31.61450       57.46391
H         64.77445       30.63363       56.31500
H         64.07516       28.18923       55.92980
H         62.56295       30.56460       59.19385
H         63.44136       26.13222       57.13919
H         61.91064       28.51202       60.38577
H         61.88781       26.07530       60.37219
N         60.41221       30.37318       56.06847
C         59.03167       30.35602       56.54621
C         58.82114       30.39111       58.05001
O         59.70032       30.77437       58.80946
C         58.06454       31.33573       55.80442
C         57.99211       30.97812       54.30330
C         58.36087       32.82525       56.03898
C         56.73541       31.51344       53.61739
H         60.70749       29.54384       55.53359
H         58.67056       29.33709       56.28372
H         57.05584       31.14511       56.22495
H         57.92770       29.87343       54.20726
H         58.90912       31.31569       53.77433
H         59.28870       33.13921       55.52018
H         57.52900       33.45180       55.65434
H         58.45990       33.03039       57.12597
H         55.83504       31.13939       54.14775
H         56.70812       32.61997       53.59340
H         56.69760       31.12587       52.57731
N         57.60855       29.98383       58.53121
C         57.17322       30.16265       59.91029
C         56.10161       29.15447       60.38711
O         55.83440       29.12473       61.57850
C         56.64295       31.59805       60.03766
O         55.61414       31.79156       59.10113
H         56.91699       29.70691       57.82887
H         58.04695       30.01545       60.58477
H         57.47494       32.30617       59.81806
H         56.26568       31.78263       61.06582
H         55.26597       32.70829       59.24297
N         55.43800       28.31992       59.52424
C         54.50115       27.27171       59.91530
C         53.48019       27.60282       61.01049
O         53.41117       26.85410       61.97687
C         55.30366       26.00666       60.25143
H         55.61151       28.37377       58.51921
H         53.90909       27.01153       59.00867
H         54.61732       25.14789       60.41838
H         55.97463       25.74734       59.40507
H         55.91895       26.16401       61.16255
N         52.57422       28.61970       60.93109
C         52.54608       29.67919       59.93343
C         51.33931       29.49583       59.01315
O         50.29883       29.10295       59.52123
C         52.41534       31.00680       60.70415
H         51.84775       28.65532       61.66546
H         53.48592       29.71600       59.38034
H         51.48924       31.00805       61.32444
H         53.27826       31.13791       61.39377
H         52.37458       31.87832       60.02016
N         51.32483       29.81223       57.67396
C         52.42396       30.40881       56.91154
C         52.74869       29.66589       55.61780
O         53.82129       29.88864       55.07292
C         52.04323       31.86522       56.62460
C         53.17706       32.67548       55.98168
C         52.98349       34.11506       56.29734
O         53.04832       34.50423       57.58574
O         52.79914       34.93435       55.41224
H         50.41993       29.71581       57.19143
H         53.35051       30.44413       57.50471
H         51.79739       32.29886       57.61822
H         51.12368       31.93603       55.99702
H         53.21447       32.48388       54.88663
H         54.15718       32.41107       56.42994
N         51.88560       28.76831       55.06203
C         52.19133       28.07766       53.82787
H         53.19399       27.60499       53.88862
H         51.43847       27.27946       53.65985
H         52.15589       28.78302       52.96881
H         50.98450       28.56359       55.50721
Ca        61.60870       35.30733       57.52182
O         60.43321       33.77778       60.01293
H         61.07130       33.38370       60.65848
H         60.36204       33.10108       59.29707
O         58.41687       35.58202       57.83845
H         57.87114       35.40171       58.64438
H         57.77611       35.52514       57.08609
O         63.38584       33.80432       58.78507
H         63.70491       32.98011       59.22148
H         64.20472       34.30559       58.55068

Ca 1.70



