%chk=loop3.cluster137.chk
%nprocshared=48
%mem=10GB
%nosave
#b3lyp/svp scf=(tight,noincore) Test 
#IOP(5/87=12) Density=Current Pop=(MK,readradii) iop(6/33=2) iop(6/42=6)

loop3.cluster137 

   0  1 
C         67.11411       17.43746       14.49123
C         68.12921       18.08885       13.59547
O         68.26228       19.30351       13.62174
H         66.16124       17.33108       13.92719
H         67.45273       16.42243       14.78406
H         66.92380       18.04391       15.40090
N         68.80805       17.32536       12.68816
C         69.70253       17.85829       11.65855
C         68.94773       18.66270       10.60435
O         69.57062       19.17136        9.67790
C         70.93348       18.55105       12.28143
C         71.98670       18.85923       11.24788
O         72.42672       20.12067       11.08460
O         72.45312       17.96320       10.56052
H         68.65495       16.30699       12.69677
H         70.09939       16.98441       11.09922
H         71.39004       17.84403       13.00839
H         70.65157       19.47661       12.82404
N         67.58665       18.72209       10.61731
C         66.78694       19.23305        9.52471
C         67.17306       20.63721        9.12124
O         67.31787       20.89198        7.93599
C         65.29108       19.12728        9.90848
C         64.38777       19.30317        8.69205
C         62.93108       18.94484        9.00958
C         62.10649       18.75239        7.72719
N         62.18340       19.90618        6.83148
H         67.07134       18.28336       11.39072
H         66.95179       18.56459        8.64896
H         65.02444       19.83231       10.72901
H         65.11524       18.09161       10.27846
H         64.74679       18.60181        7.91001
H         64.45518       20.34557        8.30931
H         62.48823       19.72711        9.66411
H         62.88565       17.97472        9.55431
H         61.04982       18.56011        8.01409
H         62.47979       17.85284        7.18556
H         61.50106       19.77494        6.05134
H         61.96142       20.78686        7.34789
H         63.13953       19.96856        6.41089
N         67.32756       21.60592       10.06480
C         67.46617       23.00501        9.69636
C         68.33758       23.77039       10.67332
O         68.05221       23.77590       11.86164
C         66.04334       23.56814        9.62620
C         65.98975       25.04230        9.43645
O         65.07425       25.75815       10.10804
O         66.73301       25.58994        8.64271
H         67.15084       21.36906       11.05090
H         67.91183       23.11405        8.68136
H         65.46872       23.30926       10.54210
H         65.54362       23.09137        8.75643
N         69.40275       24.49630       10.21175
C         70.19641       25.33687       11.09046
C         69.41204       26.52692       11.58666
O         68.36716       26.84502       11.03534
H         69.65005       24.46619        9.21211
H         71.08086       25.73855       10.54935
H         70.55815       24.72531       11.94279
N         69.87629       27.22864       12.65718
C         69.17562       28.37669       13.22069
C         70.03868       29.63657       13.20691
O         69.48237       30.72038       13.14412
C         68.70051       28.05960       14.65027
C         67.89175       26.78488       14.69969
N         66.54195       26.82453       14.76973
O         68.46356       25.70518       14.66113
H         70.72639       26.88798       13.12485
H         68.26352       28.60052       12.62358
H         68.07311       28.90578       15.00040
H         69.56484       27.95715       15.34356
H         66.04306       27.72456       14.77885
H         65.99622       25.95018       14.78136
N         71.40405       29.56904       13.26420
C         72.29029       30.72715       13.22504
C         72.10792       31.67235       14.39467
O         72.11070       31.22237       15.53079
H         71.85976       28.65064       13.31617
H         72.16832       31.26480       12.26136
H         73.33466       30.34945       13.26921
N         71.97044       33.01966       14.17218
C         71.74017       34.01951       15.22327
C         70.42495       33.77874       15.94716
O         70.25770       34.26663       17.05114
C         72.91157       34.11068       16.22142
C         74.21954       34.47335       15.57086
C         75.23477       33.51302       15.47410
C         74.45226       35.77784       15.09611
C         76.47067       33.84695       14.91904
C         75.69890       36.11524       14.55556
C         76.71343       35.14882       14.47036
O         77.92529       35.46292       13.96944
H         72.00818       33.35882       13.20006
H         71.65051       35.01899       14.74383
H         73.00023       33.14859       16.76380
H         72.70418       34.88665       16.99329
H         75.06529       32.50486       15.82967
H         73.68254       36.53723       15.17129
H         77.24535       33.09492       14.85101
H         75.88048       37.12708       14.21330
H         78.14177       36.36175       13.68401
N         69.44070       33.05043       15.34816
C         68.11625       32.75232       15.88091
C         67.28254       34.02271       15.95992
O         66.46921       34.25076       15.08014
C         68.10861       31.88192       17.18859
C         69.27098       30.85505       17.16183
C         66.73054       31.20294       17.34660
C         69.25312       29.79440       18.26235
H         69.62602       32.68856       14.40860
H         67.65448       32.11143       15.09029
H         68.27617       32.51220       18.08688
H         70.21659       31.42388       17.27710
H         69.30252       30.33623       16.18850
H         65.91532       31.95411       17.35093
H         66.54533       30.48812       16.51601
H         66.66677       30.65113       18.30814
H         69.20648       30.25794       19.26944
H         68.39533       29.10354       18.12257
H         70.18228       29.18892       18.18870
N         67.46414       34.91400       16.97485
C         66.67919       36.13695       17.14428
C         65.21291       35.83200       17.40664
O         64.36243       36.59061       16.96064
C         67.26553       37.05717       18.25256
O         67.98435       36.35767       19.23990
H         68.15620       34.68688       17.68735
H         66.71883       36.73232       16.20220
H         66.46762       37.64564       18.75039
H         67.93478       37.79761       17.75337
H         68.88674       36.77997       19.29757
N         64.84706       34.68561       18.04748
C         63.46662       34.23750       18.20904
C         62.72657       34.21586       16.87477
O         61.54713       34.54054       16.82897
C         62.72929       35.04583       19.28618
H         65.58783       34.05314       18.38035
H         63.52077       33.19288       18.58469
H         62.54816       36.09164       18.96035
H         61.75199       34.56499       19.51145
H         63.32623       35.05789       20.22280
N         63.38914       33.85911       15.73566
C         62.77823       33.86981       14.41230
C         62.70686       32.46104       13.86148
O         63.33499       31.56094       14.40397
C         63.55919       34.80300       13.47441
H         64.36926       33.57172       15.81144
H         61.73363       34.24366       14.47826
H         64.61896       34.48527       13.39606
H         63.12676       34.80115       12.45181
H         63.53607       35.84499       13.86264
N         61.83198       32.18576       12.84722
C         61.53895       30.84129       12.34125
C         60.95541       29.90002       13.40234
O         60.70147       28.74839       13.07413
C         62.77096       30.19454       11.66977
C         63.32596       31.05280       10.52597
C         64.57952       30.44107        9.98490
O         65.63935       31.03372       10.10015
O         64.56766       29.22011        9.42500
H         61.30415       32.97022       12.43647
H         60.76415       30.94033       11.54939
H         62.47923       29.20449       11.24833
H         63.56376       30.02004       12.42633
H         63.57851       32.05963       10.91859
H         62.57479       31.16383        9.71355
N         60.70740       30.30012       14.68614
C         60.22479       29.37505       15.68784
H         59.23206       28.97376       15.39667
H         60.94813       28.53967       15.80574
H         60.13136       29.89451       16.66582
H         60.86375       31.27107       14.98017
Ca        66.60218       28.35018        9.02405
O         65.83084       28.30216       11.77542
H         65.64966       28.56362       12.70778
H         65.44546       27.39854       11.70816
O         69.03859       27.44529        7.91886
H         69.54036       28.06978        7.33811
H         69.29541       26.54241        7.60603
O         65.43921       27.64386        6.61718
H         64.50062       27.52334        6.33300
H         65.78309       26.72338        6.72321
O         67.02254       30.55684        7.26386
H         66.29531       31.19662        7.46744
H         66.81787       30.22439        6.35499
O         68.78107       30.26413        9.98106
H         69.58703       30.65478       10.40111
H         68.36072       31.02425        9.50690

Ca 1.70



