%chk=loop2.cluster59.chk
%nprocshared=48
%mem=10GB
%nosave
#b3lyp/svp scf=(tight,noincore) Test 
#IOP(5/87=12) Density=Current Pop=(MK,readradii) iop(6/33=2) iop(6/42=6)

loop2.cluster59 

   -2  1 
C         61.27520       29.78593       11.15528
C         61.58138       30.10106        9.72578
O         60.88282       29.62565        8.84988
H         60.19055       29.91236       11.35034
H         61.56702       28.73355       11.35921
H         61.84576       30.45013       11.83620
N         62.62812       30.90546        9.40800
C         63.02766       31.16023        8.02821
C         63.61306       29.88856        7.40519
O         63.38314       29.63515        6.23015
C         64.01182       32.33921        8.00950
C         64.06972       33.00784        6.66806
O         63.45376       34.19502        6.49447
O         64.63953       32.47773        5.72984
H         63.17231       31.33150       10.17298
H         62.11750       31.49479        7.47322
H         65.01750       32.05773        8.39290
H         63.59440       33.10253        8.70120
N         64.25359       28.96951        8.20605
C         64.69633       27.63698        7.77657
C         63.56316       26.78240        7.17759
O         63.83067       25.76424        6.55547
C         65.94756       27.74238        6.90005
H         64.38982       29.20105        9.19957
H         65.04513       27.08712        8.67780
H         65.75492       28.26739        5.94536
H         66.73156       28.29594        7.46651
H         66.35331       26.72686        6.69647
N         62.26335       27.15644        7.36195
C         61.05378       26.50189        6.86857
C         60.92186       26.37904        5.35272
O         59.91585       25.85007        4.89829
C         60.82961       25.11832        7.53444
C         59.39604       25.01326        7.97690
O         58.95911       25.81908        8.96143
O         58.61989       24.25418        7.42119
H         62.09929       27.96649        7.94986
H         60.23083       27.17220        7.19257
H         61.44976       24.98455        8.44483
H         61.09073       24.30529        6.82109
N         61.91046       26.78408        4.50826
C         61.96212       26.35738        3.12155
C         61.39036       27.34622        2.14275
O         61.59518       27.16276        0.95117
H         62.74455       27.25059        4.87997
H         61.52568       25.34335        2.98968
H         63.04036       26.25966        2.87023
N         60.68520       28.43441        2.55764
C         60.27334       29.48914        1.63592
C         60.40133       30.85675        2.31349
O         60.88011       30.91610        3.43884
C         58.91955       29.15918        0.96576
C         57.73217       29.21247        1.88672
N         57.60394       28.34167        2.91391
O         56.85891       30.04332        1.68632
H         60.48016       28.54684        3.56122
H         61.00286       29.53037        0.79705
H         58.97111       28.15223        0.49131
H         58.76080       29.88391        0.13828
H         58.30842       27.61075        3.08085
H         56.78306       28.39256        3.53434
N         60.04333       32.00840        1.66505
C         60.32662       33.34511        2.19565
C         59.87684       33.49389        3.62365
O         60.72961       33.69764        4.48014
H         59.59472       31.94249        0.74167
H         59.87687       34.11735        1.54221
H         61.43231       33.48047        2.18424
N         58.58414       33.24859        3.98324
C         58.32548       32.68184        5.30206
C         57.57394       33.53353        6.30124
O         56.71173       34.31867        5.92822
C         57.63351       31.29983        5.10329
C         58.16027       30.24870        6.06996
O         56.23234       31.39194        5.21592
H         57.88727       33.08985        3.23697
H         59.30808       32.46474        5.77195
H         57.90886       30.88407        4.11016
H         55.88053       31.70846        4.34476
H         59.25870       30.13959        5.93764
H         57.96330       30.53741        7.10580
H         57.68522       29.26920        5.86544
N         57.72507       33.23001        7.62139
C         56.78348       33.59271        8.66713
C         56.14106       32.31826        9.14478
O         56.69510       31.24574        8.96581
C         57.50033       34.38057        9.80586
C         57.55100       35.85872        9.36554
C         56.83879       34.22043       11.19589
C         58.31548       36.77382       10.31224
H         58.48071       32.57696        7.88478
H         55.94108       34.19187        8.25213
H         58.52992       33.97161        9.92489
H         56.51038       36.24550        9.26987
H         58.03623       35.91603        8.36788
H         57.39955       34.77037       11.97669
H         55.78742       34.56820       11.19580
H         56.87546       33.15584       11.51642
H         57.81659       36.83982       11.30037
H         59.35545       36.40884       10.43509
H         58.33338       37.79507        9.87871
N         54.91920       32.35571        9.71837
C         54.20786       31.15262       10.10170
C         52.79822       31.49914       10.53824
O         52.25791       32.50992       10.10051
C         55.03482       30.30861       11.14475
C         55.46654       28.94610       10.63867
O         56.17648       28.13478       11.44461
O         55.18802       28.56902        9.51033
H         54.46888       33.27657        9.83860
H         54.04941       30.55956        9.17517
H         54.48885       30.15551       12.09164
H         55.94162       30.86351       11.45929
N         52.08011       30.61414       11.25923
C         50.66887       30.77462       11.56129
C         50.23872       29.37750       11.97374
O         49.62464       28.72962       11.13547
C         50.40882       31.99365       12.48685
C         48.95283       32.31287       12.73067
C         48.11825       32.75247       11.68274
C         48.42906       32.22627       14.02963
C         46.78146       33.08543       11.94254
C         47.09341       32.53801       14.27804
C         46.26929       32.96936       13.23817
H         52.53738       29.72559       11.51729
H         50.15251       30.98800       10.59559
H         50.84463       32.90972       12.03424
H         50.94470       31.85394       13.43663
H         48.50404       32.85886       10.67570
H         49.05407       31.92199       14.85454
H         46.14206       33.43824       11.14272
H         46.70262       32.45298       15.28296
H         45.23673       33.22223       13.44068
N         50.76802       28.72963       13.07539
C         50.81596       29.33592       14.40472
C         52.08634       30.01136       14.90251
O         51.97248       30.94142       15.68966
C         50.55588       28.12807       15.33271
C         49.89316       27.10343       14.42325
C         50.70023       27.29010       13.16800
H         49.93002       29.98124       14.51531
H         51.52511       27.67044       15.63817
H         49.98380       28.37743       16.25200
H         49.90197       26.06572       14.81585
H         48.85147       27.41823       14.19566
H         51.74070       26.90989       13.31654
H         50.28343       26.76755       12.28244
N         53.32016       29.48829       14.64016
C         54.53694       29.92343       15.34789
C         54.88713       31.40216       15.16925
O         55.81349       31.85436       15.82970
C         55.72897       29.00799       14.96191
C         55.53540       27.55865       15.47392
C         56.06070       27.37821       16.87398
O         55.22329       27.09819       17.88981
O         57.26360       27.43537       17.08193
H         53.38211       28.69884       13.97925
H         54.36248       29.79603       16.43968
H         56.70283       29.39081       15.34321
H         55.79243       29.01136       13.85686
H         56.10111       26.84906       14.83521
H         54.46459       27.26803       15.42023
N         54.15845       32.23948       14.37512
C         54.38918       33.66877       14.37905
H         55.39460       33.90738       13.97716
H         53.61380       34.17716       13.76748
H         54.30408       34.05467       15.41996
H         53.38847       31.88086       13.79846
Ca        56.76390       26.05350        9.35592
O         54.10495       25.78961       10.14455
H         53.59995       24.94983       10.27813
H         53.42023       26.50369       10.13677
O         58.22392       28.42255        9.08480
H         58.88686       28.45295        8.35902
H         57.56755       29.09712        8.80853
O         56.15502       23.35175        9.16775
H         55.77152       23.32187       10.07978
H         56.93064       22.73853        9.20193
O         56.32872       26.98576        6.68022
H         55.77334       27.48215        6.02902
H         56.70220       26.22563        6.16747
O         57.13336       24.95407       11.86804
H         57.84111       24.29511       11.65500
H         56.41414       24.42588       12.29556

Ca 1.70



