%chk=loop3.cluster209.chk
%nprocshared=48
%mem=10GB
%nosave
#b3lyp/svp scf=(tight,noincore) Test 
#IOP(5/87=12) Density=Current Pop=(MK,readradii) iop(6/33=2) iop(6/42=6)

loop3.cluster209 

   0  1 
C         76.28790       50.99914       30.00091
C         76.00526       49.82440       30.88590
O         75.01940       49.85431       31.61086
H         77.23512       50.86144       29.43917
H         75.45795       51.10224       29.26958
H         76.35844       51.92611       30.60596
N         76.80282       48.71839       30.83809
C         76.50712       47.50465       31.58434
C         77.68707       47.07589       32.45582
O         78.81539       47.48766       32.21172
C         76.03456       46.45655       30.56317
C         75.67519       45.15008       31.17064
O         74.38769       44.78476       31.31006
O         76.55496       44.35897       31.42543
H         77.59814       48.70419       30.18006
H         75.65391       47.68238       32.27800
H         76.79620       46.28723       29.77006
H         75.12417       46.86397       30.07260
N         77.45204       46.34450       33.58533
C         78.45905       46.08718       34.62084
C         79.41338       44.94830       34.30603
O         80.47620       44.89927       34.90430
C         77.74417       45.91645       35.97677
C         77.31937       47.31364       36.45193
C         76.27756       47.33652       37.56795
C         76.27247       48.74508       38.18754
N         75.11053       48.96882       39.04180
H         76.46841       46.11092       33.79315
H         79.12139       46.98204       34.69430
H         78.40803       45.48501       36.75681
H         76.88364       45.22558       35.84711
H         76.88504       47.90909       35.61678
H         78.25576       47.81696       36.78066
H         76.50326       46.59786       38.36687
H         75.29094       47.08465       37.11660
H         76.27943       49.52828       37.39616
H         77.20921       48.85264       38.78182
H         74.96445       48.16945       39.69804
H         75.26361       49.84597       39.59082
H         74.26465       49.09791       38.43959
N         79.13174       44.04686       33.33066
C         80.13114       43.14442       32.77266
C         80.41777       43.50637       31.31207
O         81.30916       42.90146       30.72707
C         79.76276       41.65294       33.00369
C         78.36017       41.12866       32.66105
O         77.97704       41.35169       31.34272
O         77.36695       41.65419       33.48939
H         78.20498       44.05011       32.91644
H         81.11018       43.28748       33.27937
H         79.88750       41.43908       34.08579
H         80.50232       41.02408       32.46376
N         79.72939       44.49649       30.65982
C         79.98945       44.88623       29.28478
C         78.98897       44.25570       28.34204
O         78.76388       44.78102       27.26273
H         78.95457       44.97979       31.12545
H         81.01402       44.61378       28.95384
H         79.92040       45.99549       29.22804
N         78.42561       43.05740       28.66079
C         77.53311       42.31640       27.78315
C         76.12112       42.86679       27.89350
O         75.65419       43.12079       28.99204
C         77.70920       40.78220       28.01276
C         76.47092       40.01114       28.38839
N         76.01594       39.02061       27.58733
O         75.89178       40.25846       29.43372
H         78.70080       42.61660       29.53910
H         77.87807       42.46721       26.73606
H         78.49193       40.57571       28.77445
H         78.13050       40.35295       27.07676
H         76.50204       38.78992       26.70825
H         75.18173       38.47857       27.85312
N         75.39591       43.09724       26.76689
C         74.11322       43.78203       26.75846
C         73.05182       43.16839       27.63396
O         72.31061       43.91827       28.25837
H         75.78842       42.81109       25.85846
H         73.73664       43.80213       25.71432
H         74.26221       44.83715       27.07665
N         72.87191       41.81939       27.70683
C         71.80558       41.24370       28.52238
C         72.02505       41.53335       30.00735
O         73.04401       42.09585       30.38955
C         71.64121       39.73490       28.23762
C         71.27027       39.48407       26.78764
C         72.23470       38.99056       25.89710
C         69.96623       39.73957       26.31420
C         71.91462       38.76853       24.55563
C         69.64335       39.49880       24.97031
C         70.62221       39.01882       24.08638
O         70.33367       38.79750       22.78678
H         73.49410       41.20061       27.16356
H         70.84909       41.73597       28.23194
H         70.85561       39.27336       28.87498
H         72.60234       39.23918       28.48855
H         73.24140       38.79703       26.23979
H         69.19924       40.10987       26.98420
H         72.67520       38.40274       23.87848
H         68.63634       39.68578       24.61481
H         69.45607       38.97327       22.41873
N         71.02817       41.24999       30.88185
C         70.94291       41.70853       32.26389
C         72.01393       41.17508       33.21034
O         73.16855       41.55773       33.12394
C         70.82295       43.25996       32.38089
C         70.34941       43.64071       33.81280
C         69.82999       43.77922       31.32231
C         70.41373       45.14207       34.09480
H         70.19054       40.77368       30.51055
H         69.96045       41.32624       32.61730
H         71.81369       43.73421       32.19963
H         71.00948       43.16796       34.56419
H         69.31625       43.26427       33.98566
H         69.58024       44.84720       31.45006
H         70.27809       43.68167       30.31219
H         68.88956       43.18817       31.35370
H         70.08285       45.33975       35.13212
H         71.46040       45.49775       33.98798
H         69.75407       45.72565       33.42693
N         71.61416       40.37124       34.23300
C         72.42875       40.02921       35.40300
C         71.62541       39.08910       36.30960
O         72.17720       38.11907       36.81117
C         72.84184       41.29941       36.18866
O         71.71624       41.99004       36.65485
H         70.64670       40.03490       34.19626
H         73.36246       39.51887       35.08069
H         73.44452       41.97066       35.53913
H         73.48039       41.00839       37.05267
H         72.04372       42.86000       37.00377
N         70.29451       39.32235       36.53266
C         69.39313       38.46701       37.29276
C         69.83912       38.21603       38.72695
O         69.95522       37.06048       39.11222
C         69.09454       37.17194       36.51918
H         69.86360       40.16529       36.12368
H         68.41339       38.98922       37.36329
H         70.00493       36.55662       36.36888
H         68.33798       36.57054       37.07116
H         68.65854       37.42321       35.52812
N         70.04998       39.22415       39.62424
C         70.08105       40.64757       39.30537
C         68.99344       41.42216       40.03076
O         68.74873       41.11007       41.18637
C         71.44935       41.17296       39.74337
H         70.26000       38.95602       40.59903
H         70.00659       40.82065       38.24781
H         71.54793       42.25633       39.55556
H         71.60112       40.99530       40.82922
H         72.24991       40.64728       39.18255
N         68.37547       42.53672       39.51044
C         68.58769       43.12160       38.17649
C         67.28685       43.52756       37.47578
O         67.34911       43.90511       36.31326
C         69.55032       44.32611       38.28659
C         69.01340       45.45512       39.17585
C         70.05215       46.51573       39.38080
O         70.09119       47.48956       38.64711
O         70.88168       46.44274       40.44023
H         67.78297       43.06253       40.16721
H         69.05778       42.40485       37.48704
H         69.77547       44.72932       37.27852
H         70.50735       43.96777       38.70866
H         68.74736       45.06527       40.17803
H         68.09809       45.89465       38.72498
N         66.07887       43.51224       38.11591
C         64.85529       43.90092       37.44855
H         64.02417       43.92779       38.18620
H         64.95755       44.91315       37.00236
H         64.60494       43.16161       36.65965
H         66.00688       43.24589       39.10279
Ca        75.82190       41.88372       31.83910
O         75.07425       39.32140       32.33163
H         74.26554       38.80432       32.09440
H         75.52083       38.80137       33.04467
O         75.48061       43.49405       34.20501
H         74.95094       44.32305       34.10946
H         75.54946       43.34167       35.17990

Ca 1.70



