%chk=loop3.cluster145.chk
%nprocshared=48
%mem=10GB
%nosave
#b3lyp/svp scf=(tight,noincore) Test 
#IOP(5/87=12) Density=Current Pop=(MK,readradii) iop(6/33=2) iop(6/42=6)

loop3.cluster145 

   0  1 
C         59.85964       63.58968       53.31924
C         59.27426       63.94425       54.65854
O         58.19523       64.51590       54.70424
H         60.85849       63.11558       53.42728
H         59.18992       62.88201       52.78902
H         59.98066       64.50716       52.70455
N         59.95229       63.63878       55.80228
C         59.49526       63.98542       57.14320
C         59.42004       65.49895       57.30745
O         60.45076       66.10982       57.54844
C         58.20888       63.24144       57.58959
C         58.33527       61.74939       57.48930
O         59.34736       61.10961       58.10432
O         57.50320       61.10776       56.86718
H         60.85826       63.15314       55.72130
H         60.27714       63.63507       57.85652
H         57.31745       63.53706       57.00225
H         58.02525       63.50151       58.65678
N         58.22345       66.16076       57.21768
C         58.06566       67.60442       57.38102
C         58.81809       68.09603       58.60758
O         59.70018       68.94027       58.48264
C         56.54963       67.97289       57.39158
C         55.69064       67.57963       58.62888
C         55.40152       66.07080       58.85614
C         54.49979       65.83101       60.08815
N         55.20296       66.06321       61.34735
H         57.37908       65.62494       57.00583
H         58.51786       68.09396       56.48792
H         56.07113       67.56383       56.47331
H         56.49733       69.07944       57.32010
H         54.69950       68.06072       58.48863
H         56.13552       68.04962       59.52405
H         56.31597       65.45796       58.98004
H         54.85763       65.69139       57.96546
H         54.15110       64.77497       60.09367
H         53.60302       66.48379       60.02685
H         54.54570       65.91485       62.14322
H         55.97331       65.36907       61.44520
H         55.57094       67.03415       61.39906
N         58.62133       67.47618       59.79714
C         59.50011       67.60849       60.95211
C         59.25597       66.46377       61.93084
O         58.25472       65.76588       61.82365
C         59.47961       69.00888       61.61893
C         58.18284       69.46360       62.21446
O         57.11170       68.66656       62.24739
O         58.12147       70.56340       62.73351
H         57.91363       66.73507       59.80668
H         60.53487       67.44808       60.57228
H         59.79646       69.77251       60.88195
H         60.21655       69.01114       62.45049
N         60.19743       66.12024       62.83917
C         60.06264       64.93684       63.66818
C         59.04241       65.13113       64.75745
O         59.18880       66.05973       65.53662
H         61.07796       66.65808       62.87771
H         61.03100       64.73938       64.16609
H         59.82769       64.05145       63.03036
N         58.02817       64.23789       64.92790
C         57.06904       64.32312       66.02415
C         57.34839       63.30150       67.12009
O         56.56881       63.22972       68.05927
C         55.62823       64.27215       65.46791
C         55.18082       65.68253       65.19964
N         54.26929       66.25984       66.01811
O         55.70096       66.33284       64.30749
H         57.97047       63.42024       64.29934
H         57.17311       65.27310       66.59771
H         54.94712       63.86494       66.24159
H         55.52207       63.61256       64.57615
H         53.85989       65.73433       66.80358
H         54.01454       67.24579       65.91018
N         58.53262       62.62068       67.16321
C         58.95191       61.80997       68.29960
C         58.18225       60.52169       68.40936
O         58.11214       59.78427       67.43747
H         59.22305       62.76545       66.41573
H         58.87934       62.41143       69.23452
H         60.01732       61.54150       68.15789
N         57.56468       60.19057       69.58399
C         56.70727       59.01788       69.76725
C         55.41077       59.13791       68.97050
O         54.61689       58.21348       69.01367
C         57.47691       57.69549       69.45605
C         57.00361       56.49011       70.25571
C         56.61477       55.28944       69.62831
C         57.01207       56.54890       71.66210
C         56.23630       54.17910       70.40163
C         56.62123       55.44850       72.42577
C         56.23143       54.25942       71.79971
O         55.85491       53.19137       72.53367
H         57.68831       60.81466       70.39618
H         56.42595       59.01696       70.84135
H         58.53623       57.83008       69.75568
H         57.46410       57.49527       68.36039
H         56.62037       55.20323       68.54913
H         57.32831       57.44904       72.17083
H         55.94985       53.25316       69.91698
H         56.63044       55.51959       73.50628
H         55.82053       53.22620       73.50142
N         55.15674       60.25485       68.20738
C         54.01154       60.49578       67.34392
C         52.77898       60.89429       68.15672
O         52.35496       62.03637       68.03899
C         53.86825       59.39130       66.25873
C         55.19139       59.17055       65.45505
C         52.72020       59.71062       65.29278
C         55.72313       60.38666       64.67805
H         55.84104       61.00457       68.19688
H         54.24599       61.42462       66.77406
H         53.62579       58.42488       66.74751
H         55.02090       58.35211       64.72314
H         55.99676       58.82591       66.13720
H         52.85682       60.70391       64.81770
H         52.66473       58.93430       64.50012
H         51.75592       59.71500       65.83135
H         56.03366       61.20078       65.36355
H         56.61865       60.08562       64.09244
H         54.97284       60.77341       63.95911
N         52.18903       60.04847       69.04545
C         51.07848       60.46118       69.90117
C         49.80736       60.74055       69.11337
O         48.96251       61.47978       69.59965
C         50.80903       59.37977       70.95878
O         50.50540       58.15750       70.33424
H         52.55721       59.10282       69.15525
H         51.38025       61.38733       70.44514
H         49.99352       59.70705       71.64607
H         51.72003       59.23722       71.58055
H         49.60416       57.87904       70.63694
N         49.58897       60.13744       67.90509
C         48.38707       60.32617       67.09504
C         48.23495       61.75300       66.58866
O         47.14444       62.13150       66.18302
C         47.13477       59.83680       67.83662
H         50.30140       59.49119       67.54304
H         48.47901       59.68150       66.19410
H         47.28968       58.79380       68.18478
H         46.88709       60.47814       68.70622
H         46.26504       59.84173       67.14477
N         49.31629       62.57913       66.51913
C         49.24413       63.95741       66.06560
C         50.06475       64.14013       64.81237
O         51.13237       63.55404       64.69012
C         49.76793       64.87413       67.16684
H         50.23880       62.22024       66.79296
H         48.19656       64.26771       65.85495
H         50.82159       64.62545       67.41621
H         49.71411       65.93448       66.83785
H         49.14250       64.75351       68.07649
N         49.61425       64.97799       63.83758
C         50.31783       65.22478       62.59202
C         50.38041       63.97512       61.73904
O         51.44049       63.60874       61.24733
C         51.66873       65.92286       62.82847
C         51.45545       67.36342       63.33304
C         52.72618       68.12408       63.19587
O         53.25390       68.20419       62.09945
O         53.32455       68.71087       64.23484
H         48.72236       65.47362       63.98184
H         49.70330       65.92440       61.98423
H         52.17125       65.97661       61.84335
H         52.34067       65.35718       63.51374
H         51.06383       67.37512       64.37378
H         50.73245       67.88206       62.67005
N         49.22388       63.30296       61.48117
C         49.13348       62.18264       60.57054
H         48.36220       62.41589       59.80502
H         50.08909       61.97867       60.04475
H         48.81784       61.27686       61.12674
H         48.35599       63.61346       61.94290
Ca        55.38352       69.23090       63.57672
O         53.51476       71.48349       64.54558
H         53.72978       72.35995       64.14055
H         52.64180       71.61497       64.99279
O         55.11402       69.73766       66.52186
H         54.36423       70.27140       66.88510
H         55.37481       69.13261       67.26020
O         56.55549       71.90226       64.83262
H         57.30003       71.56352       65.39024
H         56.99673       72.30194       64.04219
O         57.49753       68.72368       65.14523
H         58.22761       69.13775       65.66382
H         57.53962       67.76105       65.35251
O         54.49500       71.00550       61.70228
H         53.68269       71.45414       61.36121
H         55.20046       71.19437       61.03492

Ca 1.70



