%chk=loop2.cluster193.chk
%nprocshared=48
%mem=10GB
%nosave
#b3lyp/svp scf=(tight,noincore) Test 
#IOP(5/87=12) Density=Current Pop=(MK,readradii) iop(6/33=2) iop(6/42=6)

loop2.cluster193 

   -2  1 
C         85.91421       62.90543        9.64812
C         87.14336       62.57094        8.85772
O         88.21589       63.06294        9.17800
H         85.03023       62.34666        9.27176
H         86.07074       62.62367       10.71121
H         85.70793       63.99133        9.57569
N         87.06367       61.70164        7.81608
C         88.23610       61.24745        7.08883
C         88.91435       62.36433        6.29061
O         88.25037       63.03152        5.50937
C         87.84951       60.10059        6.13844
C         89.06600       59.36352        5.66082
O         90.26062       59.56056        6.27676
O         88.96037       58.55188        4.75667
H         86.14607       61.28913        7.58523
H         88.92939       60.82205        7.83510
H         87.25290       60.50864        5.29268
H         87.22826       59.34296        6.66512
N         90.26562       62.54969        6.38392
C         91.02188       63.52827        5.60495
C         91.98258       62.87574        4.59785
O         92.62613       63.60165        3.85344
C         91.86602       64.36128        6.58245
H         90.79380       61.94229        7.01406
H         90.33075       64.19330        5.04276
H         91.22660       64.85371        7.34356
H         92.58389       63.69403        7.11480
H         92.45416       65.13705        6.04817
N         92.18768       61.52359        4.57867
C         93.23829       60.86503        3.79925
C         92.76254       59.66191        2.96126
O         93.56910       59.11836        2.21850
C         94.33698       60.40936        4.78737
C         93.80045       59.54940        5.89372
O         93.22212       58.51423        5.63159
O         93.94068       59.92969        7.17779
H         91.67719       60.94987        5.23969
H         93.70164       61.58618        3.09248
H         94.79739       61.30455        5.25662
H         95.12827       59.84844        4.24914
N         91.48604       59.18744        3.02800
C         91.00048       58.05266        2.24504
C         91.62198       56.71510        2.61344
O         91.84431       55.91398        1.71625
H         90.81202       59.66628        3.63060
H         91.15831       58.24948        1.16102
H         89.90557       57.95818        2.39148
N         91.86820       56.37246        3.91442
C         92.54444       55.12263        4.27978
C         91.61153       54.10632        4.95040
O         92.08660       53.04752        5.34302
C         93.80557       55.41411        5.13740
C         93.53420       55.80461        6.55908
N         94.55382       55.90213        7.43519
O         92.39584       55.99274        6.93927
H         91.59637       57.02552        4.66040
H         92.93298       54.62418        3.36579
H         94.44188       56.19018        4.65728
H         94.39872       54.47725        5.19836
H         95.52655       55.75785        7.13995
H         94.36314       56.07222        8.42194
N         90.26446       54.32622        5.05875
C         89.34591       53.32451        5.59311
C         89.31332       53.21969        7.11109
O         88.68012       52.30874        7.61979
H         89.86082       55.17918        4.64924
H         89.58966       52.33866        5.13887
H         88.31000       53.57925        5.28697
N         89.96011       54.12543        7.89434
C         90.00002       54.05522        9.35180
C         89.91307       55.42041        9.99722
O         90.45355       56.38281        9.47944
C         91.33580       53.43395        9.81407
C         91.29840       51.91957        9.69834
O         92.42178       53.91976        9.06752
H         90.49277       54.86116        7.44208
H         89.15546       53.45486        9.75608
H         91.49782       53.64378       10.89674
H         92.45426       54.89883        9.20165
H         91.18001       51.60102        8.64349
H         92.24332       51.50742       10.10735
H         90.45340       51.52562       10.30490
N         89.37602       55.52285       11.24509
C         89.46538       56.75392       12.01109
C         90.89924       56.88653       12.49135
O         91.36026       56.03595       13.24261
C         88.47654       56.77204       13.21961
C         87.03735       56.38351       12.77942
C         88.50263       58.17866       13.86306
C         86.07563       56.19506       13.95533
H         88.96557       54.68638       11.67893
H         89.17107       57.59755       11.34682
H         88.79812       56.01527       13.96978
H         87.05040       55.39579       12.27939
H         86.63132       57.12156       12.05612
H         88.29094       58.96016       13.09953
H         87.76396       58.28916       14.67851
H         89.49726       58.38403       14.30485
H         85.88738       57.14177       14.49578
H         85.10247       55.81928       13.57493
H         86.48256       55.44009       14.66381
N         91.66143       57.94055       12.09919
C         92.99656       58.18036       12.62178
C         92.88160       59.01935       13.87928
O         91.79407       59.49020       14.15710
C         93.84997       58.86187       11.53169
C         94.04071       57.93541       10.35961
O         93.04005       57.62229        9.48015
O         95.07055       57.27985       10.33002
H         91.23387       58.66236       11.51203
H         93.47187       57.21505       12.91970
H         94.84979       59.07339       11.97323
H         93.42457       59.82622       11.19504
N         93.92560       59.19033       14.74248
C         93.79451       59.96547       15.98150
C         93.50715       61.44780       15.71083
O         92.56867       61.95366       16.29720
C         94.98165       59.73585       16.93221
C         94.80721       60.46803       18.24580
C         95.20071       61.81220       18.35411
C         94.26267       59.81808       19.36977
C         95.06641       62.49186       19.56765
C         94.12279       60.50671       20.58124
C         94.52977       61.84022       20.68069
H         94.81793       58.70813       14.54187
H         92.92080       59.55897       16.54807
H         95.95677       60.00153       16.48664
H         95.02676       58.64233       17.13334
H         95.62187       62.32662       17.49989
H         93.94190       58.78545       19.30676
H         95.38267       63.52376       19.64530
H         93.70234       60.00663       21.44493
H         94.42992       62.36920       21.62008
N         94.23485       62.20649       14.82648
C         93.81798       63.54624       14.40995
C         92.34182       63.65392       14.05563
O         91.71302       64.65577       14.37380
C         94.66603       63.75730       13.14424
C         95.95380       63.05509       13.51389
C         95.43777       61.76822       14.15628
H         94.08932       64.27710       15.20083
H         94.23360       63.18419       12.28994
H         94.77100       64.82006       12.83827
H         96.68122       62.90319       12.68875
H         96.43814       63.67606       14.30316
H         95.18746       60.99713       13.39980
H         96.22135       61.40773       14.85048
N         91.72849       62.64605       13.38392
C         90.31860       62.66385       12.99745
C         89.42724       62.44828       14.21206
O         88.33695       62.99493       14.27467
C         90.05740       61.58417       11.93163
C         91.03784       61.77951       10.75975
C         90.93001       60.75620        9.70125
O         91.73079       60.79121        8.78645
O         90.00282       59.77872        9.75730
H         92.29758       61.81816       13.15304
H         90.08233       63.63768       12.51092
H         89.01001       61.65908       11.56168
H         90.19785       60.57621       12.37395
H         92.08574       61.70240       11.09947
H         90.90217       62.78235       10.30671
N         89.86357       61.66017       15.23073
C         89.14865       61.46177       16.46590
H         88.16829       60.98621       16.27352
H         89.75000       60.79210       17.12383
H         89.02928       62.43313       16.98843
H         90.76139       61.20127       15.14001
Ca        91.54582       58.40724        7.84681
O         89.40834       56.85420        6.80354
H         88.75607       56.59010        6.11042
H         88.85386       57.16843        7.55867

Ca 1.70



