%chk=loop1.cluster74.chk
%nprocshared=48
%mem=10GB
%nosave
#b3lyp/svp scf=(tight,noincore) Test 
#IOP(5/87=12) Density=Current Pop=(MK,readradii) iop(6/33=2) iop(6/42=6)

loop1.cluster74 

   0  1 
C         50.23113       78.86014      -16.36609
C         48.83259       78.48022      -15.96889
O         48.22709       77.62340      -16.59509
H         50.89006       77.96767      -16.36120
H         50.22235       79.33336      -17.36651
H         50.66068       79.59059      -15.64351
N         48.27432       79.08589      -14.89398
C         46.96421       78.76768      -14.34458
C         45.82595       79.23632      -15.25302
O         45.91579       80.31377      -15.82386
C         46.88428       79.49426      -12.99439
C         45.75498       79.10228      -12.11823
O         45.57382       79.77403      -10.96969
O         45.05096       78.14355      -12.38657
H         48.84677       79.78811      -14.40000
H         46.90592       77.67139      -14.14915
H         46.85047       80.58783      -13.17795
H         47.79711       79.26545      -12.40345
N         44.70306       78.47391      -15.39096
C         43.57491       78.81721      -16.25999
C         42.24903       78.94636      -15.49203
O         41.25003       79.28316      -16.11507
C         43.48602       77.73081      -17.35440
C         44.76204       77.73602      -18.22838
C         44.78582       76.57232      -19.23622
C         46.18962       75.96429      -19.42372
N         47.16490       76.86035      -20.03974
H         44.65934       77.58813      -14.88158
H         43.73777       79.79695      -16.75820
H         42.59003       77.86356      -17.99588
H         43.39945       76.74148      -16.84379
H         45.62488       77.62581      -17.54383
H         44.87965       78.70619      -18.76291
H         44.31655       76.87387      -20.19863
H         44.18710       75.73485      -18.82129
H         46.09518       75.05005      -20.04515
H         46.56467       75.65112      -18.43137
H         46.88406       77.06765      -21.02390
H         47.26830       77.74319      -19.49101
H         48.09087       76.37022      -20.05283
N         42.15990       78.70817      -14.14603
C         40.89555       78.78306      -13.40341
C         41.03561       79.19778      -11.92263
O         40.01323       79.35192      -11.26911
C         40.13696       77.44807      -13.55861
C         40.88613       76.24477      -13.06486
O         40.40242       75.13628      -13.22057
O         42.08793       76.36884      -12.47360
H         42.98095       78.33371      -13.67196
H         40.25583       79.57096      -13.86161
H         39.93827       77.29049      -14.63964
H         39.15883       77.49428      -13.03238
N         42.24854       79.42525      -11.33132
C         42.39392       79.89952       -9.95931
C         41.91384       78.95785       -8.87270
O         41.82928       79.38850       -7.73152
H         43.10078       79.33396      -11.87659
H         41.87570       80.87328       -9.86842
H         43.46823       80.07983       -9.74297
N         41.64096       77.64809       -9.12474
C         41.24489       76.70771       -8.06822
C         42.30121       76.50850       -6.96652
O         41.99761       75.84939       -5.98179
C         40.87788       75.32717       -8.66823
C         42.02552       74.66127       -9.38945
O         41.98378       73.46400       -9.61753
O         42.98928       75.43929       -9.93817
H         41.71009       77.31817      -10.09410
H         40.33052       77.11989       -7.59110
H         40.05378       75.45329       -9.40320
H         40.49478       74.66105       -7.86350
N         43.56770       77.00303       -7.08732
C         44.60096       76.82418       -6.07553
C         45.61349       75.74399       -6.43405
O         46.59318       75.61392       -5.71174
H         43.82894       77.50685       -7.93760
H         44.16662       76.57522       -5.08238
H         45.12269       77.79901       -5.95327
N         45.41451       74.87773       -7.47857
C         46.30219       73.74246       -7.75425
C         46.53078       73.50081       -9.23255
O         45.61058       73.65064      -10.00889
C         45.68483       72.45379       -7.18743
C         45.67868       72.48582       -5.66557
O         44.36780       72.27619       -7.65109
H         44.53688       74.94156       -8.01107
H         47.29697       73.88735       -7.27489
H         46.32226       71.58551       -7.48020
H         44.42001       71.84361       -8.54252
H         46.71289       72.65433       -5.29307
H         45.01910       73.29572       -5.29174
H         45.31392       71.51428       -5.27865
N         47.70499       72.97359       -9.67302
C         47.95715       72.64137      -11.07638
C         47.23148       71.37722      -11.49918
O         47.40501       70.33884      -10.87159
C         49.49759       72.54332      -11.33062
C         50.13760       73.96214      -11.31845
C         49.86831       71.79128      -12.62348
C         49.85925       74.80980      -12.57272
H         48.44644       72.78658       -8.97862
H         47.58808       73.45872      -11.71777
H         49.94217       71.95076      -10.50127
H         51.24004       73.86791      -11.24254
H         49.77926       74.51242      -10.42181
H         49.54878       70.72968      -12.55919
H         49.37876       72.24853      -13.50155
H         50.96665       71.79358      -12.77839
H         48.78067       74.91209      -12.77693
H         50.28253       75.82707      -12.44017
H         50.33749       74.36577      -13.47067
N         46.51175       71.37467      -12.66166
C         45.97657       70.16394      -13.27060
C         46.88787       69.75284      -14.41944
O         47.86532       70.43867      -14.66052
C         44.48637       70.39541      -13.66298
C         44.27691       71.28182      -14.90089
O         43.83668       69.17377      -13.88581
H         46.45267       72.24953      -13.20240
H         46.00575       69.33579      -12.53196
H         43.99567       70.90736      -12.80543
H         43.67029       68.77648      -12.99051
H         43.19536       71.51143      -15.02236
H         44.82353       72.23792      -14.82600
H         44.60756       70.75265      -15.81586
N         46.66803       68.63279      -15.15045
C         47.51740       68.21209      -16.27364
C         47.62717       69.27723      -17.36751
O         48.73316       69.56748      -17.79519
C         46.99399       66.88407      -16.87367
C         47.37364       65.69851      -15.96562
O         45.60076       66.97353      -17.06321
H         45.85581       68.05118      -14.89327
H         48.56314       68.03146      -15.92453
H         47.48544       66.69988      -17.85452
H         45.25494       66.06688      -17.26440
H         46.95461       65.80427      -14.94422
H         47.01594       64.74651      -16.41141
H         48.48233       65.62969      -15.89162
N         46.51555       69.87889      -17.87843
C         46.59488       70.87623      -18.95722
C         47.27143       72.18472      -18.55635
O         47.54484       73.00146      -19.42876
C         45.19157       71.16299      -19.51821
C         44.63196       69.90186      -20.18582
C         43.35759       70.19091      -20.99017
C         43.04328       69.03591      -21.95668
N         43.94311       69.04404      -23.12064
H         45.59731       69.60075      -17.51554
H         47.20899       70.44084      -19.77844
H         45.29261       71.94101      -20.30598
H         44.50880       71.54562      -18.72686
H         44.42931       69.09541      -19.44421
H         45.42343       69.53162      -20.85935
H         43.46092       71.11749      -21.59558
H         42.52556       70.33949      -20.26756
H         42.00385       69.15016      -22.33274
H         43.10631       68.06602      -21.41493
H         43.81266       68.16445      -23.66809
H         43.70851       69.85806      -23.73505
H         44.95045       69.11231      -22.86117
N         47.60510       72.43617      -17.26761
C         48.36670       73.59295      -16.81825
C         49.83613       73.19595      -16.75278
O         50.67668       73.93621      -17.24092
C         47.78997       74.07800      -15.46260
C         46.36327       74.63365      -15.65425
C         45.56397       74.93790      -14.41871
O         46.06838       74.82425      -13.18443
O         44.40379       75.29036      -14.54323
H         47.36596       71.73298      -16.56383
H         48.30217       74.44252      -17.53363
H         48.42914       74.87721      -15.03841
H         47.77443       73.21917      -14.76531
H         45.76469       73.89855      -16.22668
H         46.42966       75.57491      -16.23197
N         50.20642       71.98887      -16.24135
C         51.56973       71.51355      -16.25316
H         52.22213       72.20695      -15.68768
H         51.61113       70.50958      -15.77419
H         51.92569       71.40863      -17.30041
H         49.49803       71.35994      -15.87516
Ca        44.60908       75.33674      -11.53235
O         43.13229       73.28089      -12.39597
H         42.77653       72.67099      -11.70755
H         42.36561       73.85288      -12.63017
O         45.66707       76.95074       -9.31553
H         45.40233       77.83387       -9.65645
H         46.35569       77.15430       -8.63582
O         47.45576       76.48265      -11.40912
H         48.15066       77.00015      -11.88343
H         47.73695       76.52098      -10.46404

Ca 1.70



