%chk=loop3.cluster191.chk
%nprocshared=48
%mem=10GB
%nosave
#b3lyp/svp scf=(tight,noincore) Test 
#IOP(5/87=12) Density=Current Pop=(MK,readradii) iop(6/33=2) iop(6/42=6)

loop3.cluster191 

   0  1 
C         92.11990       63.27893       26.64938
C         92.81763       61.96587       26.51917
O         92.79201       61.19592       27.47067
H         91.06548       63.11698       26.96048
H         92.64178       63.86217       27.43632
H         92.13896       63.84640       25.69812
N         93.48300       61.62753       25.37331
C         94.21108       60.36875       25.30088
C         95.47580       60.48088       26.14127
O         95.84108       61.57367       26.54536
C         94.47431       59.92583       23.83996
C         94.74766       58.43667       23.71250
O         94.16179       57.64787       24.43575
O         95.42740       57.95053       22.66149
H         93.49083       62.27337       24.56908
H         93.53615       59.60500       25.74236
H         95.24321       60.55747       23.34062
H         93.52892       60.07758       23.27576
N         96.13819       59.35913       26.51533
C         97.27185       59.39890       27.44094
C         98.56222       59.94630       26.82463
O         99.54092       60.09237       27.55093
C         97.47160       58.00050       28.04525
C         97.94612       56.97202       27.01357
C         98.09481       55.59646       27.65983
C         98.74581       54.59336       26.70094
N         97.88921       54.28004       25.55589
H         95.74022       58.45608       26.24262
H         96.98723       60.05711       28.29215
H         96.50208       57.67115       28.48473
H         98.21479       58.06115       28.86944
H         98.93129       57.29775       26.61872
H         97.23456       56.90215       26.16764
H         97.10472       55.21897       28.00371
H         98.75535       55.69550       28.54769
H         98.94870       53.65861       27.26522
H         99.71998       55.00107       26.34767
H         96.96827       53.91374       25.88987
H         97.74137       55.11904       24.95163
H         98.35678       53.54460       24.97950
N         98.64402       60.27429       25.50202
C         99.82077       60.87558       24.87869
C         99.52201       62.29483       24.37447
O        100.42590       62.92665       23.85021
C        100.37797       59.96468       23.74726
C         99.32899       59.42604       22.82639
O         98.47156       60.24883       22.21839
O         99.21472       58.22038       22.66743
H         97.81851       60.12324       24.90315
H        100.65083       60.99986       25.61120
H        100.88625       59.08685       24.20197
H        101.13223       60.52038       23.15238
N         98.29115       62.88021       24.54333
C         98.01113       64.25326       24.12983
C         98.03840       64.46068       22.62516
O         98.01654       65.60120       22.18434
H         97.54093       62.36999       25.01324
H         98.75100       64.92003       24.62209
H         96.99966       64.54840       24.48474
N         98.07486       63.39859       21.77820
C         98.18494       63.48320       20.32980
C         96.99694       62.78113       19.67688
O         96.67618       61.66038       20.04304
C         99.55524       62.89800       19.93929
C         99.68597       62.66628       18.46091
N        100.46014       63.45558       17.68708
O         99.08930       61.73507       17.95603
H         98.04463       62.46329       22.18329
H         98.19046       64.53797       19.97903
H         99.75758       61.93342       20.45287
H        100.32103       63.62514       20.29118
H        100.96783       64.25450       18.08768
H        100.52876       63.27317       16.67541
N         96.28111       63.41664       18.70245
C         95.03400       62.89661       18.15741
C         95.11185       61.60687       17.35788
O         94.07800       60.97985       17.18106
H         96.58611       64.35281       18.39549
H         94.57315       63.66220       17.49699
H         94.33839       62.74007       19.00820
N         96.26431       61.18465       16.76854
C         96.32396       59.94053       15.99651
C         96.12646       58.73190       16.88337
O         96.54636       58.74406       18.03212
C         97.66736       59.78515       15.25299
C         97.80127       60.82358       14.17042
C         97.16175       60.63813       12.93255
C         98.54977       61.98616       14.39106
C         97.27178       61.60789       11.93160
C         98.64537       62.96271       13.39736
C         98.00618       62.77601       12.16280
O         98.08972       63.71337       11.19743
H         97.09394       61.77985       16.83028
H         95.52080       59.95265       15.22728
H         97.73592       58.78299       14.76981
H         98.50908       59.84111       15.97756
H         96.58604       59.73985       12.74320
H         99.04000       62.14138       15.33803
H         96.78134       61.45466       10.97839
H         99.21276       63.86432       13.58856
H         98.57617       64.53920       11.33236
N         95.54542       57.61230       16.35868
C         95.39734       56.34458       17.06676
C         96.74918       55.66615       17.22543
O         97.78361       56.31905       17.18148
C         94.49065       56.47719       18.33226
C         94.43263       55.21583       19.23306
C         93.06801       56.85166       17.85222
C         93.89007       55.56944       20.62720
H         95.21937       57.64637       15.38149
H         94.87064       55.66396       16.36051
H         94.90213       57.27846       18.97607
H         95.45461       54.83013       19.42146
H         93.83496       54.40655       18.75999
H         92.31534       56.84436       18.66172
H         93.06584       57.86124       17.39360
H         92.71984       56.12177       17.08503
H         92.87251       56.00399       20.60092
H         93.87615       54.67868       21.28667
H         94.56601       56.31575       21.08866
N         96.79524       54.30573       17.21669
C         98.03886       53.55291       17.07946
C         97.86388       52.20093       16.35801
O         98.83246       51.45559       16.29804
C         98.64595       53.35106       18.47756
O         97.82540       52.51600       19.25174
H         95.89937       53.80855       17.25452
H         98.76724       54.13880       16.47526
H         98.79283       54.34238       18.96557
H         99.65212       52.88777       18.40286
H         97.52029       53.03498       20.04012
N         96.65857       51.79489       15.82992
C         96.38848       50.43930       15.36236
C         96.84758       49.43284       16.41294
O         97.73888       48.64274       16.13495
C         96.96568       50.19908       13.96466
H         95.85201       52.42380       15.82665
H         95.28889       50.33268       15.22506
H         98.07262       50.21600       13.95507
H         96.60782       49.21326       13.59094
H         96.57883       50.97700       13.27041
N         96.32139       49.42020       17.67487
C         95.10337       50.14325       18.03781
C         93.91243       49.32947       17.54098
O         94.12432       48.20164       17.11414
C         95.07401       50.34250       19.56360
H         96.68941       48.72326       18.34245
H         95.09497       51.14558       17.57717
H         94.17777       50.88506       19.91190
H         95.11527       49.36601       20.08888
H         95.95043       50.94327       19.87856
N         92.62275       49.77089       17.55631
C         92.15985       51.07567       18.01592
C         91.28974       51.78285       16.97597
O         91.29990       53.00641       16.93452
C         91.32646       50.81961       19.27954
C         90.89746       52.09423       20.01149
C         90.13023       51.71791       21.24279
O         88.94488       51.43883       21.15886
O         90.79052       51.47268       22.39070
H         91.91006       49.08675       17.26884
H         93.00367       51.74702       18.27698
H         91.94294       50.21894       19.98342
H         90.43202       50.21676       19.00671
H         90.26485       52.74209       19.36812
H         91.80075       52.67269       20.30603
N         90.44751       51.08235       16.15841
C         89.48829       51.73437       15.29546
H         88.71434       52.22999       15.92002
H         89.98046       52.47781       14.63591
H         88.98194       50.97207       14.66382
H         90.45547       50.05665       16.15405
Ca        96.69443       59.24268       21.40164
O         94.24031       59.82088       20.29266
H         93.90502       60.71851       20.53995
H         93.59721       59.47765       19.62512
O         97.41838       56.57862       20.42815
H         98.11889       56.49827       19.73504
H         97.35059       55.67371       20.82251
O         99.09322       59.32242       19.60288
H         99.16579       59.37809       18.61903
H        100.02592       59.21394       19.91470

Ca 1.70



