%chk=loop3.cluster155.chk
%nprocshared=48
%mem=10GB
%nosave
#b3lyp/svp scf=(tight,noincore) Test 
#IOP(5/87=12) Density=Current Pop=(MK,readradii) iop(6/33=2) iop(6/42=6)

loop3.cluster155 

   0  1 
C        104.07835       59.18190       20.82810
C        105.17990       58.26392       20.28728
O        105.29677       57.17484       21.16760
H        103.12333       58.63684       20.96249
H        104.40255       59.58310       21.81477
H        103.90934       60.04900       20.15173
N        106.42612       59.05348       20.28148
C        107.58450       58.30496       19.77889
C        108.06571       57.27637       20.78687
O        107.76871       56.11546       20.58871
C        108.73133       59.24220       19.31626
C        109.03610       60.37120       20.27301
O        110.23793       60.44759       20.87393
O        108.20479       61.24207       20.48033
H        106.26241       59.86984       19.64716
H        107.26750       57.74578       18.87056
H        108.45042       59.71513       18.35183
H        109.63997       58.62633       19.13392
N        108.79479       57.61514       21.89074
C        109.36081       56.62529       22.80858
C        110.52405       55.87259       22.15431
O        111.68465       56.13370       22.43721
C        109.70947       57.29747       24.14713
C        110.21715       56.27643       25.18230
C        110.16201       56.81240       26.61812
C        108.73707       56.88301       27.21649
N        108.11670       55.55745       27.34162
H        108.96646       58.60728       22.08715
H        108.57247       55.89000       23.08578
H        108.76207       57.75278       24.50183
H        110.45459       58.11539       24.02258
H        111.27052       56.03396       24.92820
H        109.64202       55.32912       25.13733
H        110.63927       57.81568       26.65096
H        110.75546       56.13405       27.26718
H        108.07025       57.55349       26.63296
H        108.83461       57.32060       28.23299
H        107.77455       55.21680       26.41448
H        108.79212       54.86781       27.74517
H        107.29514       55.62303       27.98551
N        110.23578       54.87169       21.28724
C        111.19540       54.00629       20.62440
C        110.59723       53.52831       19.28963
O        110.98461       52.47851       18.79115
C        111.53881       52.83298       21.57383
C        110.32514       52.14216       22.14307
O        109.53986       52.78616       23.03066
O        110.08221       50.98245       21.85378
H        109.25816       54.59764       21.20606
H        112.13662       54.54708       20.38041
H        112.12416       53.21353       22.43824
H        112.17962       52.10576       21.03190
N        109.62305       54.25828       18.66797
C        108.96286       53.83683       17.44237
C        107.73804       54.70463       17.13674
O        107.29761       55.43341       18.01124
H        109.35033       55.15749       19.07701
H        108.60374       52.79714       17.56022
H        109.71195       53.88095       16.62519
N        107.10951       54.71288       15.92763
C        107.58841       54.00221       14.75475
C        106.40075       53.47473       13.95679
O        105.57522       54.28401       13.55605
C        108.39795       55.01782       13.91952
C        109.07937       54.40466       12.72500
N        108.86083       54.89145       11.48107
O        109.86412       53.48220       12.88601
H        106.33555       55.38585       15.80018
H        108.27512       53.19014       15.04441
H        109.19590       55.44243       14.56621
H        107.74132       55.86210       13.60865
H        108.21768       55.68209       11.32897
H        109.35331       54.48650       10.67125
N        106.23041       52.15862       13.62846
C        107.08099       51.05719       14.04521
C        106.73018       50.64163       15.44340
O        107.14655       51.30226       16.37821
H        105.42764       51.91926       13.02550
H        108.16258       51.25737       13.89232
H        106.83917       50.19711       13.38820
N        105.90459       49.57386       15.66232
C        105.41541       49.23717       16.99035
C        105.89260       47.87414       17.44100
O        106.30284       47.05402       16.62841
C        103.86471       49.32159       17.05157
C        103.35322       50.72975       16.82612
C        102.83691       51.46046       17.90926
C        103.39868       51.33204       15.55437
C        102.42056       52.78288       17.73742
C        102.97379       52.65496       15.38439
C        102.49980       53.38873       16.48025
O        102.12730       54.67620       16.33631
H        105.56569       49.02069       14.85989
H        105.81752       49.95304       17.74019
H        103.55663       49.00017       18.06868
H        103.38266       48.62083       16.33413
H        102.79300       51.01913       18.89705
H        103.76401       50.78341       14.69706
H        102.05864       53.34191       18.59038
H        103.02147       53.11397       14.40460
H        102.22890       55.14865       15.49800
N        105.83844       47.57703       18.76944
C        106.18810       46.27944       19.34256
C        104.92577       45.45622       19.55591
O        105.01552       44.24943       19.71618
C        106.99912       46.49009       20.65885
C        106.09221       47.07578       21.78812
C        107.67141       45.18682       21.13689
C        106.86545       47.69461       22.94554
H        105.47084       48.31022       19.38965
H        106.81231       45.73214       18.59906
H        107.80962       47.20964       20.40466
H        105.41430       46.27798       22.16317
H        105.44212       47.89184       21.42467
H        108.35308       45.38326       21.98981
H        106.91819       44.43957       21.46513
H        108.28133       44.74026       20.32373
H        107.41692       48.58962       22.58346
H        106.14106       48.02433       23.72157
H        107.57326       46.97966       23.40384
N        103.70522       46.06860       19.56316
C        102.44988       45.34267       19.61347
C        101.90056       45.26158       21.02096
O        101.10563       44.36334       21.28145
C        101.44062       46.07438       18.71094
O        101.92699       46.17436       17.39960
H        103.64720       47.09097       19.50347
H        102.59274       44.30980       19.22567
H        101.28713       47.10869       19.09613
H        100.44505       45.57958       18.72036
H        101.75742       45.29864       16.96682
N        102.19785       46.20506       21.96364
C        101.59815       46.19370       23.29436
C        101.89618       47.45601       24.09483
O        102.79761       48.21461       23.75541
C        102.10314       44.98886       24.11244
H        102.81395       46.98816       21.69878
H        100.49210       46.13655       23.16550
H        101.65800       44.98498       25.13066
H        101.85257       44.02102       23.63483
H        103.20905       45.04927       24.21788
N        101.14865       47.72862       25.20011
C        101.40509       48.80588       26.15009
C        101.49613       50.19705       25.53181
O        102.35735       50.98130       25.90414
C        102.61209       48.45449       27.01781
H        100.34745       47.10715       25.40501
H        100.52648       48.83659       26.83260
H        103.53157       48.38981       26.40052
H        102.74743       49.21596       27.81384
H        102.43234       47.47100       27.50392
N        100.57013       50.57557       24.61758
C        100.42232       51.94596       24.12909
C         98.95273       52.29195       23.90297
O         98.55517       53.40486       24.22601
C        101.21154       52.23970       22.83610
C        102.73677       52.38244       23.04651
C        103.32906       53.27813       21.98233
O        104.44773       52.98500       21.29717
O        102.84681       54.38797       21.82928
H         99.89810       49.86163       24.32444
H        100.78737       52.67268       24.89482
H        100.84494       53.24422       22.52397
H        100.96973       51.53136       22.01674
H        103.24370       51.40048       23.16385
H        102.90020       52.95859       23.98413
N         98.09329       51.40730       23.31911
C         96.71778       51.74392       23.03888
H         96.19536       52.07630       23.96111
H         96.68633       52.54404       22.27106
H         96.19641       50.84769       22.63955
H         98.40727       50.46527       23.05872
Ca       105.21964       54.95742       20.40133
O        105.75364       52.85595       18.33771
H        104.89302       52.75942       18.80695
H        105.52081       52.76567       17.38217
O        105.96691       55.04604       23.01499
H        105.38415       55.43234       23.71423
H        106.44424       54.29890       23.45223
O        103.24159       55.78228       18.88886
H        102.50859       55.68444       19.54631
H        102.85422       56.29087       18.13841
O        107.39476       53.13186       20.76659
H        107.71208       52.49842       20.07767
H        107.53337       52.66088       21.62351

Ca 1.70



