%chk=loop1.cluster87.chk
%nprocshared=48
%mem=10GB
%nosave
#b3lyp/svp scf=(tight,noincore) Test 
#IOP(5/87=12) Density=Current Pop=(MK,readradii) iop(6/33=2) iop(6/42=6)

loop1.cluster87 

   0  1 
C         82.75656       77.21566       66.49858
C         84.22021       77.27937       66.17813
O         84.64272       78.23765       65.55975
H         82.16783       77.21214       65.55856
H         82.50799       76.30348       67.07976
H         82.47465       78.10476       67.10173
N         85.06019       76.28880       66.58666
C         86.51173       76.33064       66.39215
C         86.97796       75.77956       65.04403
O         88.17926       75.62725       64.86411
C         87.24013       75.60516       67.54394
C         87.02352       74.12822       67.59622
O         85.80443       73.62448       67.86859
O         87.97455       73.37751       67.44896
H         84.65292       75.52138       67.13269
H         86.87435       77.35153       66.53563
H         86.93839       76.03973       68.51886
H         88.33249       75.78521       67.42106
N         86.09945       75.42123       64.06389
C         86.50061       74.58626       62.93240
C         86.55238       75.35916       61.63157
O         85.53631       75.91619       61.24732
C         85.46823       73.46087       62.74939
C         85.33334       72.50125       63.93545
C         86.55280       71.58326       64.11426
C         86.28483       70.45036       65.12602
N         85.89215       70.95854       66.43511
H         85.09960       75.64268       64.17145
H         87.46790       74.10930       63.13971
H         85.70854       72.86776       61.84061
H         84.47505       73.93610       62.58495
H         84.45551       71.85888       63.72041
H         85.13094       73.07679       64.86535
H         87.43509       72.18043       64.43251
H         86.79743       71.09699       63.14439
H         87.21896       69.85619       65.23165
H         85.48574       69.77615       64.74878
H         86.58330       71.67097       66.71774
H         84.93022       71.36901       66.40461
H         85.91245       70.19250       67.14412
N         87.66113       75.40083       60.83466
C         88.93957       74.75383       61.10981
C         90.01118       75.56911       60.40299
O         90.40193       75.21157       59.30023
C         88.89209       73.28511       60.62718
C         90.13433       72.50035       60.97299
O         90.23102       71.33811       60.61421
O         91.12877       73.05502       61.69541
H         87.56273       75.86437       59.92163
H         89.18569       74.74815       62.18724
H         88.73361       73.26278       59.52689
H         88.03627       72.76492       61.10465
N         90.48397       76.73824       60.92012
C         90.22679       77.18842       62.28447
C         90.51877       78.66612       62.41947
O         91.53882       79.10069       61.90177
H         91.18192       77.25231       60.35984
H         90.93786       76.64742       62.94486
H         89.22027       76.92328       62.63549
N         89.74392       79.53000       63.13727
C         88.57878       79.16307       63.95172
C         88.30598       80.23973       65.01494
O         88.98170       81.25629       65.05308
C         87.32347       78.91925       63.07327
C         87.09263       80.02188       62.07713
O         86.71263       79.75012       60.95348
O         87.48817       81.27877       62.34709
H         90.07236       80.50553       63.17139
H         88.81236       78.25626       64.54897
H         86.42040       78.79253       63.70210
H         87.38309       77.96775       62.51294
N         87.30976       80.05458       65.92408
C         86.99832       81.01535       66.96496
C         85.80114       81.84878       66.59797
O         85.59874       82.87649       67.23702
H         86.71608       79.24032       65.84351
H         87.85668       81.70041       67.11553
H         86.83048       80.49720       67.93531
N         84.97052       81.51426       65.56565
C         83.92501       82.41493       65.10840
C         82.77405       81.67735       64.45993
O         82.93309       80.53896       64.03816
C         84.56987       83.40684       64.08446
C         83.68422       84.58880       63.71430
O         84.91417       82.75926       62.88803
H         85.14366       80.64884       65.03223
H         83.52084       82.95255       65.99488
H         85.49063       83.83733       64.53557
H         85.40364       81.93923       63.12817
H         83.41390       85.16101       64.62391
H         84.24913       85.25322       63.02496
H         82.77284       84.26049       63.17727
N         81.57882       82.29380       64.30615
C         80.53791       81.80522       63.41817
C         80.11233       82.93832       62.49042
O         79.82792       84.04031       62.94687
C         79.34762       81.11689       64.15814
C         78.13242       80.90434       63.20425
C         78.90307       81.88032       65.40607
C         78.38329       79.92654       62.04364
H         81.43178       83.20251       64.77846
H         80.95174       80.99996       62.77607
H         79.70015       80.12779       64.52762
H         77.83374       81.89258       62.79120
H         77.23860       80.54183       63.75419
H         78.11293       81.29415       65.92360
H         79.75217       81.96853       66.11730
H         78.51653       82.88706       65.15505
H         77.92244       78.94335       62.27035
H         77.91250       80.31573       61.11817
H         79.45340       79.75326       61.82690
N         80.04686       82.70450       61.15348
C         79.60839       83.68414       60.16005
C         78.67327       83.06969       59.11931
O         77.78711       83.75683       58.63389
C         80.84266       84.30959       59.48187
C         80.45513       85.50723       58.59207
O         81.54137       83.33343       58.74641
H         80.36103       81.78127       60.84366
H         79.07688       84.52010       60.67082
H         81.48362       84.68795       60.30836
H         82.26930       83.78931       58.25056
H         81.35144       86.13636       58.40865
H         80.04692       85.17019       57.61616
H         79.69677       86.14640       59.09442
N         78.86656       81.78498       58.69342
C         78.15857       81.13308       57.61472
C         78.76395       81.51387       56.29656
O         79.17883       82.64742       56.09153
C         76.61101       81.20146       57.61046
C         76.01152       80.80520       58.96581
O         76.09865       80.38768       56.57311
H         79.62334       81.22552       59.09181
H         78.40566       80.05278       57.74112
H         76.28252       82.23672       57.39190
H         75.82810       79.50175       56.93451
H         76.31320       79.77096       59.24044
H         76.34750       81.50782       59.75359
H         74.90429       80.85158       58.90288
N         78.81325       80.56176       55.34072
C         79.25990       80.76648       53.99475
C         80.43828       79.92235       53.50915
O         81.02065       80.39253       52.53925
C         78.05091       80.52748       53.07780
C         76.99698       81.64162       53.15456
C         77.56885       82.95611       52.59140
C         76.49375       83.91861       52.08506
N         75.58022       84.36022       53.13432
H         78.38212       79.67926       55.56250
H         79.62462       81.80961       53.87639
H         77.58189       79.55795       53.35024
H         78.36532       80.44123       52.01666
H         76.60345       81.79186       54.18626
H         76.15574       81.30435       52.51423
H         78.19042       82.72240       51.69983
H         78.22045       83.45271       53.34340
H         75.91865       83.41680       51.27497
H         77.00741       84.80172       51.64545
H         76.11175       84.82591       53.90430
H         74.91185       85.04677       52.71547
H         75.03371       83.55130       53.50717
N         80.91231       78.71704       53.97833
C         80.53464       77.78965       55.05297
C         79.07072       77.49196       55.30184
O         78.63401       77.54983       56.44599
C         81.39738       78.03405       56.30662
C         81.56685       76.73809       57.12504
C         82.63685       76.91236       58.14987
O         82.54771       77.87946       59.07207
O         83.63942       76.21614       58.10772
H         81.73936       78.37897       53.45733
H         80.89573       76.81353       54.65937
H         80.99247       78.86875       56.92376
H         82.41391       78.32990       55.96403
H         81.90173       75.92016       56.44692
H         80.61414       76.42849       57.59917
N         78.25027       77.14032       54.27609
C         76.83754       76.86574       54.46893
H         76.23742       77.54389       53.82758
H         76.62504       75.81546       54.18527
H         76.50741       77.01704       55.51975
H         78.63772       77.06738       53.32432
Ca        84.45056       78.24990       60.17886
O         84.75248       80.20633       58.16483
H         84.84035       81.10828       58.56004
H         84.70954       80.36740       57.19085
O         84.10581       77.77499       62.79781
H         83.92612       78.74285       62.83535
H         83.45610       77.37690       63.42338
O         87.10897       77.99496       58.83153
H         87.43409       77.35974       58.14667
H         87.92614       78.26758       59.32023
O         83.51473       80.78575       60.89902
H         83.89312       80.71221       61.80543
H         83.89971       81.62819       60.55730

Ca 1.70



