%chk=loop4.cluster71.chk
%nprocshared=48
%mem=10GB
%nosave
#b3lyp/svp scf=(tight,noincore) Test 
#IOP(5/87=12) Density=Current Pop=(MK,readradii) iop(6/33=2) iop(6/42=6)

loop4.cluster71 

   -3  1 
C         48.62995       37.65284       45.99588
C         49.27123       37.43278       47.31879
O         50.42632       37.77578       47.46295
H         47.78125       38.35287       46.14867
H         49.35499       38.14599       45.31010
H         48.27815       36.70163       45.55918
N         48.54168       36.98667       48.38167
C         49.02390       37.13435       49.75088
C         49.59516       38.52060       49.94888
O         50.63181       38.67469       50.56967
C         49.84203       35.92589       50.27874
C         50.71944       35.13241       49.32124
O         50.33608       34.01854       49.00169
O         51.98591       35.47812       48.98678
H         47.54127       36.78299       48.23925
H         48.12182       37.16628       50.40886
H         49.05122       35.19316       50.55978
H         50.34736       36.14476       51.24770
N         48.89717       39.59133       49.45052
C         49.21925       41.00961       49.61980
C         48.81184       41.55349       50.98633
O         48.37642       42.69299       51.07919
C         50.61370       41.42725       49.05252
C         51.52192       42.05941       50.13519
C         50.40062       42.35650       47.84080
C         52.94621       42.31376       49.64923
H         48.04484       39.38462       48.90670
H         48.44634       41.49308       48.97810
H         51.13318       40.51937       48.67334
H         51.59144       41.35495       50.99144
H         51.08501       43.01540       50.49836
H         51.34669       42.68885       47.37591
H         49.83137       41.80428       47.06082
H         49.80933       43.24928       48.14092
H         53.41222       41.35864       49.33796
H         52.97172       43.03402       48.81066
H         53.54831       42.74248       50.47018
N         48.77980       40.71234       52.04772
C         48.07607       40.95111       53.28574
C         48.93533       40.79991       54.56669
O         48.63862       41.52479       55.50535
C         46.89637       39.94763       53.31975
C         46.11397       39.93445       52.02255
O         45.50660       41.05137       51.57933
O         46.05623       38.91254       51.35475
H         49.10207       39.78072       51.89787
H         47.62597       41.97030       53.28046
H         46.21177       40.19202       54.15705
H         47.29301       38.92259       53.48024
N         49.91876       39.84809       54.77269
C         50.41089       38.92893       53.75862
C         51.20360       37.75192       54.28206
O         50.61816       36.68424       54.40246
H         50.32834       39.77905       55.71735
H         50.99564       39.47521       52.98577
H         49.53216       38.42484       53.32088
N         52.53736       37.78828       54.55594
C         53.37850       38.97923       54.54397
C         53.97147       39.24273       53.15800
O         54.51145       38.30966       52.58155
C         54.49381       38.73951       55.58021
C         55.35298       39.93868       55.81588
O         55.14933       40.71052       56.89922
O         56.27900       40.18232       55.06539
H         52.96237       36.90474       54.88512
H         52.77743       39.82291       54.92702
H         55.13266       37.86541       55.31590
H         53.98548       38.50028       56.53838
N         53.95948       40.47572       52.55159
C         53.61591       41.71448       53.24273
C         54.62510       42.80626       52.94992
O         54.24648       43.94867       52.72691
H         54.37665       40.55827       51.61074
H         53.72381       41.57875       54.33265
H         52.57191       42.02682       53.04037
N         55.94960       42.51855       53.03839
C         57.01436       43.51202       53.07032
C         57.28666       44.27873       51.78476
O         58.08117       45.20659       51.84235
C         58.33296       42.84155       53.55114
C         58.84173       41.66926       52.67073
C         60.13355       41.09998       53.20737
N         60.20127       40.60447       54.46349
O         61.12885       41.07775       52.49899
H         56.19324       41.54263       53.21722
H         56.73581       44.26351       53.84317
H         58.14875       42.45437       54.57400
H         59.12781       43.61400       53.62528
H         59.00004       42.01897       51.63514
H         58.11065       40.83745       52.63121
H         59.37396       40.60166       55.07571
H         61.09087       40.22991       54.82371
N         56.73679       43.93831       50.58297
C         57.26443       44.52883       49.34994
C         58.59015       43.86128       49.04408
O         58.74155       42.69380       49.34877
C         56.27318       44.43332       48.15959
C         56.89604       44.97782       46.85779
C         55.00711       45.24843       48.46288
H         56.12292       43.11419       50.51986
H         57.44917       45.61602       49.50720
H         55.99992       43.37150       47.98663
H         57.79921       44.40077       46.56975
H         56.17541       44.88557       46.01842
H         57.17537       46.04806       46.97111
H         55.27225       46.30846       48.67344
H         54.31670       45.23086       47.59242
H         54.47565       44.84116       49.34477
N         59.60830       44.58953       48.49778
C         60.96144       44.11177       48.20412
C         61.09118       43.09547       47.05612
O         61.89773       43.35519       46.17152
C         61.74730       43.67495       49.45685
C         61.68843       44.70592       50.56238
N         61.27496       44.35378       51.79891
O         62.02794       45.85924       50.34399
H         59.42885       45.58784       48.31597
H         61.52259       45.01058       47.85622
H         62.81624       43.55527       49.16411
H         61.38931       42.69946       49.83037
H         61.00944       43.38620       51.99376
H         61.23481       45.04257       52.56308
N         60.43284       41.88960       47.03187
C         60.74915       40.84439       46.06784
C         59.53364       40.10319       45.52391
O         58.71639       39.61888       46.29924
C         61.71160       39.81379       46.69900
C         61.16341       38.96720       47.83436
C         60.93236       37.59370       47.63483
C         60.92279       39.51860       49.10294
C         60.47579       36.79017       48.68201
C         60.47487       38.70907       50.15148
C         60.25650       37.34180       49.94550
O         59.84856       36.55076       50.95840
H         59.79299       41.63444       47.77587
H         61.32045       41.27109       45.21420
H         62.63613       40.32337       47.04489
H         62.01959       39.14107       45.87257
H         61.10926       37.14178       46.67090
H         61.10670       40.56210       49.28961
H         60.30633       35.73436       48.51381
H         60.30800       39.13695       51.12734
H         59.72456       36.89621       51.85423
N         59.45030       39.84438       44.18394
C         58.53495       38.87847       43.58036
C         57.06057       39.21643       43.68690
O         56.25249       38.39444       43.29427
C         58.82838       37.43607       44.07184
C         60.29797       37.03087       43.85221
C         60.71648       37.10826       42.41029
O         60.17407       36.40642       41.57210
O         61.69345       37.95861       42.03921
H         60.16272       40.25942       43.56344
H         58.73247       38.86168       42.48735
H         58.18627       36.71868       43.51248
H         58.58276       37.33204       45.14993
H         60.45436       35.99328       44.21655
H         60.94719       37.70257       44.44277
N         56.64438       40.45311       44.08097
C         55.23680       40.83247       44.02517
C         55.03980       41.68359       42.79105
O         54.21668       41.33708       41.95035
C         54.80220       41.57109       45.29933
C         55.14168       40.84241       46.60606
C         54.67969       39.41958       46.73886
O         55.49094       38.55135       47.01920
O         53.37422       39.11061       46.71789
H         57.33735       41.17658       44.30310
H         54.58118       39.93791       43.93589
H         53.70680       41.75565       45.24045
H         55.31022       42.55832       45.35474
H         54.69324       41.42537       47.43337
H         56.24211       40.85513       46.74668
N         55.81760       42.77965       42.57453
C         55.74383       43.54131       41.34913
H         56.50140       44.35335       41.36637
H         55.96616       42.87949       40.48313
H         54.73459       43.98603       41.23095
H         56.51942       43.05554       43.27930
Ca        52.85215       37.24122       47.87171
O         53.64772       38.58485       49.96501
H         53.44768       37.75439       50.46616
H         52.79473       39.07892       49.95774
O         55.34285       35.89926       49.03198
H         55.61738       35.17927       49.65337
H         56.11720       36.01602       48.42614
O         51.30515       35.09208       45.87835
H         51.17163       34.40048       45.18483
H         51.00511       34.64632       46.70492
O         54.31943       34.43148       46.28959
H         53.54569       33.88065       46.01341
H         55.02634       33.77115       46.49528
O         53.76822       36.85622       44.81523
H         53.80998       36.21152       44.06631
H         54.63874       37.32199       44.78470

Ca 1.70



