%chk=loop4.cluster154.chk
%nprocshared=48
%mem=10GB
%nosave
#b3lyp/svp scf=(tight,noincore) Test 
#IOP(5/87=12) Density=Current Pop=(MK,readradii) iop(6/33=2) iop(6/42=6)

loop4.cluster154 

   -3  1 
C         38.59066       43.42269       42.88496
C         38.61555       43.25640       44.37875
O         39.42775       42.49142       44.85915
H         37.89464       44.23050       42.58356
H         39.61019       43.69735       42.53222
H         38.29125       42.47555       42.38911
N         37.78626       43.99472       45.18039
C         37.84944       44.01186       46.64563
C         39.22390       44.42700       47.10112
O         39.87200       43.63543       47.74568
C         37.27340       42.74782       47.37531
C         37.81123       41.41449       46.95620
O         37.06058       40.58432       46.47614
O         39.11797       41.14218       47.09521
H         37.13652       44.65197       44.72949
H         37.18308       44.82060       47.01128
H         36.17478       42.73300       47.21913
H         37.44230       42.85980       48.47133
N         39.69518       45.68600       46.80849
C         40.97076       46.30480       47.22886
C         41.03324       46.53014       48.74361
O         41.02233       47.67043       49.18929
C         42.22697       45.58458       46.65270
C         43.50480       46.37770       47.03956
C         42.11057       45.42802       45.12530
C         44.76100       45.96210       46.27989
H         39.07721       46.28317       46.23895
H         40.97614       47.32129       46.77356
H         42.31240       44.56820       47.07989
H         43.67556       46.25139       48.13216
H         43.37068       47.46270       46.83739
H         42.94046       44.79604       44.74638
H         41.17473       44.90764       44.84190
H         42.15513       46.41634       44.62301
H         44.69271       46.28037       45.22090
H         45.62797       46.47428       46.74331
H         44.90513       44.86565       46.27581
N         41.07913       45.46988       49.58184
C         40.98214       45.50159       51.02312
C         42.16287       44.77392       51.70219
O         42.69500       45.34808       52.63790
C         39.61732       44.90542       51.45946
C         38.45855       45.63770       50.82445
O         38.30801       46.96298       51.01269
O         37.64961       45.03145       50.13952
H         41.11419       44.57351       49.16064
H         40.96844       46.55324       51.39067
H         39.51448       44.99228       52.56226
H         39.53498       43.83252       51.19945
N         42.62265       43.51367       51.37393
C         42.18094       42.71610       50.24553
C         42.56366       41.26491       50.35586
O         41.65065       40.45838       50.46662
H         43.35582       43.10714       51.97305
H         42.56923       43.12177       49.28787
H         41.07478       42.70735       50.21464
N         43.84105       40.78364       50.28656
C         45.10503       41.52840       50.15987
C         45.10659       42.49112       48.97185
O         44.61629       42.10071       47.93022
C         46.19276       40.46211       49.91325
C         47.55720       41.02301       49.81539
O         48.20434       41.41488       50.92842
O         48.10787       41.07544       48.73219
H         43.91303       39.75252       50.31779
H         45.30127       42.06764       51.10598
H         45.94660       39.94396       48.95765
H         46.20818       39.69746       50.71828
N         45.64293       43.75136       48.99673
C         46.51660       44.30275       50.01202
C         47.75702       44.88442       49.33838
O         47.69421       45.99607       48.82580
H         45.49147       44.34357       48.18211
H         46.80856       43.54999       50.76260
H         45.99766       45.12182       50.55374
N         48.93261       44.19089       49.32444
C         50.20471       44.71490       48.83583
C         50.29431       45.07129       47.35113
O         51.32590       45.60251       46.97593
C         51.39320       43.80146       49.26862
C         51.36305       42.34017       48.78239
C         51.50255       42.19160       47.29263
N         50.46398       41.75571       46.54515
O         52.56946       42.44836       46.75652
H         48.93860       43.27857       49.77603
H         50.37519       45.67695       49.36834
H         51.38234       43.76733       50.37990
H         52.35685       44.26719       48.96839
H         50.44132       41.84930       49.13706
H         52.19888       41.77892       49.25629
H         49.54659       41.58288       46.96715
H         50.57250       41.61183       45.53415
N         49.26324       44.89213       46.46198
C         49.34308       45.53535       45.14335
C         50.11275       44.70843       44.15039
O         50.04062       43.50155       44.21823
C         47.96423       46.01641       44.60902
C         47.13588       44.92127       43.90776
C         48.12605       47.21809       43.66289
H         48.37718       44.47415       46.76693
H         49.90164       46.48081       45.30872
H         47.41193       46.40551       45.48146
H         46.95826       44.05229       44.57206
H         46.15319       45.33472       43.59418
H         47.64646       44.57133       42.98258
H         47.13047       47.63288       43.40136
H         48.69425       48.02753       44.17295
H         48.65673       46.93916       42.73061
N         50.83686       45.32878       43.17529
C         51.56410       44.70199       42.07183
C         50.65757       43.97822       41.06681
O         50.56351       44.41456       39.92611
C         52.73182       43.79856       42.54083
C         53.82320       43.78788       41.49008
N         53.91542       42.78841       40.59400
O         54.60329       44.72531       41.42600
H         50.88296       46.35676       43.21390
H         52.03214       45.56189       41.53985
H         52.38346       42.77265       42.79322
H         53.20061       44.18930       43.46825
H         53.23442       42.03755       40.61501
H         54.64072       42.79174       39.86163
N         50.01615       42.82297       41.40990
C         49.39949       41.90587       40.46015
C         48.32940       41.02690       41.09416
O         48.08434       41.12694       42.29235
C         50.51890       41.02611       39.84428
C         51.44706       40.25483       40.79362
C         51.23503       40.10673       42.18755
C         52.62481       39.71850       40.24518
C         52.18672       39.49109       42.99600
C         53.58580       39.11930       41.06465
C         53.37069       39.01206       42.44447
O         54.29797       38.45503       43.24762
H         50.19984       42.45851       42.33269
H         48.89605       42.48673       39.65233
H         51.16211       41.74636       39.29371
H         50.11691       40.32938       39.08155
H         50.35262       40.45369       42.68078
H         52.82385       39.82477       39.18635
H         52.00668       39.40419       44.06138
H         54.50661       38.75843       40.62844
H         55.14011       38.12999       42.90099
N         47.66958       40.10875       40.32342
C         46.66612       39.14479       40.78800
C         45.29120       39.75944       41.01541
O         44.29681       39.08586       40.78099
C         47.10387       38.29799       42.00247
C         48.53736       37.74897       41.93364
C         48.80294       36.83968       40.77271
O         48.11829       35.68865       40.64533
O         49.67413       37.12002       39.96368
H         47.92934       40.04960       39.32617
H         46.53033       38.44078       39.93490
H         46.38678       37.45768       42.12927
H         47.04192       38.92678       42.91541
H         48.75104       37.19759       42.87286
H         49.23212       38.59717       41.88581
N         45.16174       41.06108       41.38668
C         43.90080       41.76463       41.44189
C         43.82564       42.55513       40.15796
O         42.88768       42.37105       39.39565
C         43.86794       42.67187       42.68493
C         44.12047       41.91059       43.99346
C         43.10086       40.84564       44.26337
O         43.44938       39.71900       44.57773
O         41.80857       41.19206       44.33317
H         45.99279       41.63032       41.52771
H         43.03797       41.06153       41.48813
H         42.88937       43.19879       42.73257
H         44.66181       43.44651       42.61153
H         44.06992       42.65162       44.82084
H         45.14069       41.47049       44.01135
N         44.85569       43.38339       39.80983
C         44.97312       43.99248       38.50403
H         45.94256       43.67660       38.05817
H         44.16697       43.67373       37.81199
H         44.96924       45.09503       38.60465
H         45.62977       43.54166       40.47156
Ca        40.31979       40.01511       45.54672
O         41.56226       38.70282       47.73066
H         41.27985       38.03033       48.39800
H         42.07706       39.36720       48.24919
O         41.95821       41.60489       47.08038
H         42.82924       41.61311       46.63095
H         41.62811       42.50484       46.88391
O         40.61160       37.11125       45.21548
H         40.75810       36.38979       45.87734
H         40.63317       36.65718       44.33654
O         38.01247       39.40814       44.10993
H         37.96256       39.13335       43.16283
H         37.12444       39.17934       44.47839
O         38.57280       38.10512       47.21305
H         38.50583       38.78420       47.93018
H         37.65752       38.04148       46.84190
O         40.49473       39.19957       42.41872
H         40.62364       40.17428       42.30589
H         40.81599       38.80790       41.56916

Ca 1.70



