%chk=loop1.cluster53.chk
%nprocshared=48
%mem=10GB
%nosave
#b3lyp/svp scf=(tight,noincore) Test 
#IOP(5/87=12) Density=Current Pop=(MK,readradii) iop(6/33=2) iop(6/42=6)

loop1.cluster53 

   0  1 
C         45.38111       37.81177        7.07367
C         45.56287       37.67066        5.59666
O         46.57994       38.11022        5.08328
H         44.38451       37.44543        7.39009
H         46.14618       37.21273        7.59154
H         45.49240       38.87435        7.37111
N         44.59104       37.08207        4.84143
C         44.70607       36.90217        3.40080
C         43.77557       37.83868        2.65918
O         43.28489       37.48218        1.59511
C         44.52562       35.41772        2.99847
C         43.19018       34.81434        3.34990
O         42.82181       34.67382        4.63705
O         42.46094       34.39033        2.46779
H         43.72869       36.77695        5.30709
H         45.72364       37.20242        3.06108
H         45.30271       34.80322        3.48534
H         44.66549       35.34257        1.90455
N         43.58358       39.11295        3.11119
C         42.94639       40.14612        2.30652
C         43.86372       41.37277        2.32059
O         43.94208       42.00123        3.36837
C         41.56752       40.52707        2.89954
C         40.54854       39.37361        2.88411
C         39.22258       39.81446        3.53063
C         38.12654       38.74858        3.37827
N         36.92023       39.12381        4.11992
H         43.95824       39.38201        4.03453
H         42.78595       39.77962        1.27542
H         41.14534       41.36394        2.29996
H         41.69830       40.87729        3.94761
H         40.94221       38.50150        3.45197
H         40.37548       39.06561        1.83061
H         38.85779       40.74961        3.05071
H         39.40429       40.01829        4.60879
H         38.48462       37.76389        3.75083
H         37.88128       38.64597        2.29716
H         36.62316       40.09818        3.88276
H         36.14507       38.46572        3.87542
H         37.10426       39.05514        5.14766
N         44.63509       41.79158        1.26488
C         44.79655       41.14437       -0.03711
C         43.55925       41.19398       -0.91934
O         42.48492       41.51040       -0.43247
C         45.38940       39.70851        0.10662
C         46.85816       39.64744       -0.19213
O         47.55921       40.63383       -0.03307
O         47.44317       38.48617       -0.52771
H         45.21155       42.63377        1.42111
H         45.51699       41.77801       -0.59894
H         44.85267       38.97540       -0.53273
H         45.28036       39.32491        1.13421
N         43.62585       40.92462       -2.26131
C         44.88117       40.70689       -2.97348
C         44.64552       40.36347       -4.42571
O         44.03936       41.16999       -5.11633
H         42.74830       40.93392       -2.80297
H         45.47677       39.92548       -2.49238
H         45.47600       41.65029       -2.95141
N         45.11602       39.22080       -5.01237
C         45.77771       38.10643       -4.32781
C         44.76930       37.31096       -3.51673
O         43.67547       37.03496       -3.99337
C         46.47623       37.19377       -5.37827
C         46.70784       35.76400       -4.94545
O         47.49516       35.47273       -3.89907
O         46.15751       34.85677       -5.54958
H         44.95375       39.12401       -6.02671
H         46.60491       38.45684       -3.66669
H         47.44601       37.66184       -5.66923
H         45.84743       37.13241       -6.28622
N         45.15783       36.78528       -2.32460
C         44.33786       35.86471       -1.54615
C         45.13465       34.89871       -0.66216
O         44.63278       33.82329       -0.38206
H         46.12367       36.97225       -2.05118
H         43.73548       35.23521       -2.23890
H         43.60795       36.43004       -0.92854
N         46.36537       35.23055       -0.16152
C         47.11969       34.39251        0.76986
C         47.83320       35.28678        1.76415
O         48.41906       36.28140        1.37129
C         48.17513       33.51042        0.06352
C         47.50706       32.43358       -0.79489
O         48.95118       32.87197        1.05003
H         46.75455       36.14874       -0.35893
H         46.44568       33.71298        1.33110
H         48.83721       34.15119       -0.56213
H         49.70682       32.42226        0.59010
H         46.83424       31.81460       -0.16102
H         46.92659       32.88572       -1.62254
H         48.28072       31.76587       -1.22935
N         47.88344       34.91846        3.07746
C         48.62012       35.70001        4.06116
C         50.04066       35.90084        3.60358
O         50.36167       37.04334        3.37299
C         48.44863       35.18024        5.51843
C         49.25165       36.08371        6.49558
C         48.81042       33.69713        5.70895
C         48.91655       35.84190        7.96661
H         47.40814       34.05997        3.36240
H         48.16357       36.70876        4.06529
H         47.36365       35.28871        5.74383
H         49.02647       37.15181        6.28212
H         50.34410       35.93141        6.34437
H         48.24510       33.03965        5.02235
H         49.89331       33.52508        5.56881
H         48.53135       33.36441        6.72651
H         49.16806       34.81329        8.28597
H         49.48843       36.55250        8.59915
H         47.84031       36.00787        8.14330
N         50.90046       34.86815        3.34559
C         52.22162       34.99893        2.70493
C         53.33334       35.71979        3.50249
O         54.37270       35.10873        3.68083
C         52.10705       35.42549        1.21273
C         53.47761       35.49605        0.52210
O         51.41502       36.62370        1.02220
H         50.55863       33.90977        3.50925
H         52.60998       33.95832        2.61074
H         51.51443       34.63040        0.70840
H         51.90891       37.31055        1.52704
H         54.06264       36.35965        0.90704
H         54.05637       34.56656        0.70420
H         53.34673       35.62276       -0.57046
N         53.21846       37.00132        3.96330
C         54.22590       37.75654        4.69761
C         55.28923       38.31838        3.78155
O         55.66336       37.67666        2.80945
C         54.72679       37.10172        6.01480
C         55.06404       38.14592        7.08871
O         55.87828       36.32573        5.79693
H         52.37012       37.51909        3.79689
H         53.65163       38.65238        5.02929
H         53.89514       36.50213        6.45460
H         55.59833       35.40540        5.58266
H         54.19540       38.81713        7.27048
H         55.29258       37.63226        8.04711
H         55.94083       38.75883        6.79791
N         55.75412       39.57839        4.01082
C         56.75062       40.24767        3.19659
C         56.36340       41.53731        2.46222
O         57.20233       41.93531        1.66366
C         57.93420       40.62406        4.13048
C         58.67688       39.41176        4.69560
C         59.48918       38.74783        3.57980
C         60.10747       37.41985        4.01203
N         60.20552       36.52634        2.85710
H         55.44273       40.04044        4.85968
H         57.04907       39.57362        2.36870
H         57.50880       41.21682        4.97064
H         58.67977       41.27031        3.61920
H         57.93570       38.69955        5.12296
H         59.35803       39.72898        5.51287
H         60.27275       39.43409        3.18121
H         58.80193       38.52892        2.75026
H         59.45335       36.92199        4.75943
H         61.10193       37.59600        4.48151
H         60.79392       36.95014        2.10450
H         60.60079       35.60869        3.15696
H         59.24128       36.35050        2.48262
N         55.24016       42.31460        2.60653
C         54.02905       42.14152        3.40370
C         54.25274       42.06669        4.89847
O         53.56571       41.31201        5.57663
C         53.12231       41.06435        2.79326
C         52.79847       41.42269        1.33152
C         52.12917       40.28096        0.66880
O         50.87888       40.41154        0.21127
O         52.71984       39.22410        0.55341
H         55.23631       43.17283        2.03194
H         53.45707       43.08923        3.29152
H         52.16769       40.98041        3.36151
H         53.62677       40.08663        2.82991
H         53.71617       41.62448        0.74295
H         52.15309       42.32951        1.30662
N         55.16493       42.88161        5.49389
C         55.34254       42.91775        6.93033
H         55.78802       43.89413        7.21218
H         54.36173       42.84538        7.44772
H         56.01689       42.10137        7.26722
H         55.72427       43.52340        4.91359
Ca        49.65922       38.66117       -0.46168
O         49.75315       36.22128       -1.99466
H         48.76767       36.26684       -2.05837
H         50.05784       35.90984       -2.88357
O         49.85644       39.08627       -3.19109
H         49.78911       39.96919       -3.63121
H         49.45951       38.44545       -3.83191
O         48.95583       39.30571        2.13738
H         49.80590       39.15227        2.61288
H         48.47941       39.96313        2.69836
O         52.20080       37.66577       -2.05286
H         52.48628       38.55329       -1.72832
H         53.03686       37.24092       -2.36507

Ca 1.70



