%chk=loop3.cluster63.chk
%nprocshared=48
%mem=10GB
%nosave
#b3lyp/svp scf=(tight,noincore) Test 
#IOP(5/87=12) Density=Current Pop=(MK,readradii) iop(6/33=2) iop(6/42=6)

loop3.cluster63 

   0  1 
C        109.18609       44.51274       14.38903
C        110.51960       43.88699       14.09217
O        110.59726       42.69860       13.82280
H        108.36990       43.76323       14.42118
H        109.23557       45.05066       15.35908
H        108.95631       45.25608       13.59272
N        111.61859       44.68024       14.07807
C        112.94710       44.23998       13.65414
C        113.69268       43.40165       14.68074
O        113.20918       43.17717       15.77950
C        113.76768       45.49249       13.24723
C        113.85608       46.54206       14.32670
O        113.28185       47.61015       14.18000
O        114.55921       46.31383       15.45142
H        111.46745       45.67922       14.27649
H        112.84587       43.62149       12.73490
H        113.24122       45.93188       12.37470
H        114.79292       45.24483       12.90590
N        114.93861       42.95018       14.35636
C        115.83511       42.26287       15.27034
C        116.58093       41.22168       14.45809
O        117.25495       41.56731       13.49755
C        116.73611       43.33523       15.88063
C        117.82574       42.86392       16.84786
C        118.53106       44.13110       17.35267
C        119.61401       43.88442       18.39841
N        120.13018       45.17054       18.87387
H        115.32397       43.21646       13.44001
H        115.26816       41.77633       16.09533
H        116.05818       44.02106       16.44069
H        117.21275       43.91327       15.05979
H        118.54817       42.19592       16.32965
H        117.36761       42.31255       17.69880
H        117.76481       44.79232       17.81362
H        118.98621       44.66422       16.48765
H        120.44021       43.28285       17.95861
H        119.18112       43.32622       19.25706
H        120.85365       45.01077       19.60954
H        120.55554       45.70538       18.08128
H        119.35150       45.73523       19.28815
N        116.40976       39.90521       14.74299
C        116.87577       38.83976       13.85623
C        116.26690       38.94516       12.45073
O        116.86787       38.43364       11.51358
C        116.57691       37.45101       14.47737
C        115.13209       37.21624       14.85478
O        114.30254       38.09760       14.73422
O        114.76078       36.03666       15.38186
H        115.88300       39.66034       15.59056
H        117.98022       38.93477       13.74657
H        117.16724       37.34785       15.41183
H        116.89784       36.65674       13.77054
N        115.07725       39.58140       12.22673
C        114.54713       39.77075       10.87845
C        113.09265       40.32676       10.83727
O        112.69725       40.93155       12.03528
H        114.55883       39.95551       13.03155
H        114.51499       38.79808       10.33795
H        115.24819       40.44860       10.34928
N        112.80081       41.24562        9.72280
C        113.42525       41.14036        8.39118
C        112.36506       40.91329        7.32058
O        111.47011       41.74243        7.22747
C        114.14880       42.47836        8.13360
C        114.80008       42.56079        6.77606
N        114.77038       43.71904        6.07532
O        115.37894       41.58824        6.31590
H        111.99781       41.90714        9.84193
H        114.17778       40.34123        8.38499
H        114.92909       42.61515        8.91148
H        113.43181       43.32492        8.24545
H        114.32503       44.56152        6.46913
H        115.22319       43.78086        5.15189
N        112.34844       39.84405        6.46029
C        113.28353       38.72492        6.40504
C        112.61946       37.54522        7.05972
O        112.48318       37.57985        8.27277
H        111.55934       39.79438        5.80112
H        114.25856       38.91127        6.89066
H        113.51107       38.52406        5.33600
N        112.09559       36.50350        6.33736
C        111.26390       35.47896        6.97402
C        111.74798       34.06501        6.73934
O        111.70996       33.57684        5.61410
C        109.79124       35.54767        6.51639
C        109.15503       36.88004        6.80007
C        108.25337       37.02637        7.86410
C        109.45439       37.98500        5.99608
C        107.69163       38.27530        8.14733
C        108.88385       39.22830        6.26794
C        108.01339       39.38217        7.35482
O        107.48730       40.58863        7.64289
H        112.20417       36.49308        5.31100
H        111.23819       35.64972        8.07440
H        109.24957       34.76309        7.08781
H        109.67841       35.30717        5.43769
H        108.00615       36.17790        8.47902
H        110.12660       37.87877        5.15538
H        107.01651       38.38480        8.98761
H        109.12491       40.07299        5.63721
H        107.72285       41.37592        7.13099
N        112.13610       33.31535        7.80385
C        112.39510       31.87765        7.74763
C        111.09480       31.06110        7.52455
O        111.17484       29.89930        7.15933
C        113.18189       31.45946        9.03083
C        112.34603       31.66463       10.32999
C        113.74887       30.03536        8.92423
C        113.16702       31.55583       11.61040
H        112.24343       33.81122        8.69785
H        113.06844       31.70918        6.87509
H        114.06069       32.14290        9.07675
H        111.50262       30.95354       10.36572
H        111.91232       32.67813       10.37070
H        114.38162       29.94733        8.01493
H        114.40045       29.80985        9.79248
H        112.94209       29.27676        8.88242
H        114.01748       32.27143       11.57991
H        112.52124       31.82263       12.47447
H        113.54474       30.52706       11.76220
N        109.86479       31.63905        7.70517
C        108.59006       31.00556        7.33189
C        107.94738       30.14592        8.41607
O        106.86660       29.62507        8.17349
C        107.58479       32.11560        6.96109
O        107.42475       32.99184        8.04305
H        109.83485       32.61327        8.02198
H        108.73105       30.37464        6.42581
H        106.59678       31.67333        6.70033
H        107.97428       32.66978        6.07969
H        106.80083       33.70191        7.74556
N        108.53599       29.94973        9.62692
C        107.89313       29.19325       10.69636
C        107.93231       30.00689       11.97418
O        109.00933       30.40263       12.39156
C        108.61946       27.86823       10.89563
H        109.46957       30.33520        9.79815
H        106.84083       28.93628       10.43837
H        108.60461       27.29546        9.94352
H        109.67217       28.03373       11.20359
H        108.09522       27.26775       11.67079
N        106.78137       30.30181       12.64364
C        106.76083       31.08642       13.87737
C        107.35921       32.46719       13.66536
O        108.14046       32.94763       14.48024
C        107.37842       30.29815       15.03701
H        105.88027       29.97810       12.26312
H        105.69249       31.26110       14.14163
H        106.75846       29.39646       15.23067
H        108.41040       29.97054       14.79980
H        107.39740       30.90976       15.96315
N        106.95430       33.18695       12.59328
C        107.27258       34.58342       12.34544
C        105.98572       35.38843       12.47387
O        106.02818       36.46894       13.03948
C        107.88262       34.74244       10.93859
C        109.37251       34.34743       10.83621
C        110.29961       35.37637       11.42211
O        109.81564       36.51109       11.95363
O        111.50658       35.20753       11.36377
H        106.32739       32.71417       11.92403
H        107.98315       35.00607       13.09240
H        107.79379       35.79725       10.60990
H        107.28539       34.12458       10.24171
H        109.64624       34.28253        9.76273
H        109.55231       33.36152       11.31349
N        104.79507       34.91676       11.99013
C        103.54709       35.62853       12.17125
H        102.76818       34.91983       12.52694
H        103.62670       36.43971       12.92529
H        103.23009       36.05093       11.19740
H        104.74960       34.02034       11.49162
Ca       110.74422       39.86949       12.62763
O        108.89713       40.55179       15.06736
H        109.29003       41.21380       15.68977
H        108.82526       39.72288       15.60296
O        110.33385       38.87875        9.96996
H        109.63298       38.20376       10.13299
H        111.17739       38.37700       10.03922
O        107.90929       38.90690       12.56580
H        107.89244       38.00014       12.17395
H        106.99787       39.03174       12.92891
O        109.40640       41.47258       10.94264
H        109.41653       41.12989       10.01575
H        108.84961       42.28615       10.90477
O        110.02439       37.36012       14.63718
H        109.09392       37.23614       14.95129
H        110.31238       36.45392       14.36223
O        112.66443       37.94911       12.56599
H        113.18450       37.16331       12.84926
H        112.03675       37.58428       11.90426
O        111.96992       40.29809       14.96843
H        112.40814       39.44657       15.19983
H        112.24995       40.92112       15.67760

Ca 1.70



