%chk=loop2.cluster120.chk
%nprocshared=48
%mem=10GB
%nosave
#b3lyp/svp scf=(tight,noincore) Test 
#IOP(5/87=12) Density=Current Pop=(MK,readradii) iop(6/33=2) iop(6/42=6)

loop2.cluster120 

   -2  1 
C         60.90850       47.19313        8.73756
C         62.01779       46.79764        7.80406
O         62.42450       45.64495        7.82125
H         59.99386       46.60018        8.52565
H         61.23000       47.01303        9.78402
H         60.65694       48.26964        8.63054
N         62.56973       47.72823        6.97064
C         63.70536       47.46398        6.08074
C         63.27119       46.93855        4.71034
O         63.65585       47.48576        3.68508
C         64.60045       48.72403        5.97577
C         63.91065       49.96485        5.44417
O         64.54305       51.00256        5.34178
O         62.60942       49.94975        5.08791
H         62.23009       48.69369        7.06355
H         64.34112       46.66996        6.53569
H         65.46814       48.49451        5.31933
H         64.99401       48.95567        6.98886
N         62.49498       45.82859        4.63900
C         62.12983       45.15445        3.39849
C         60.88489       44.33785        3.66703
O         60.88151       43.62367        4.66248
C         63.23116       44.16395        3.01837
H         62.20862       45.39383        5.51964
H         62.01882       45.87519        2.56367
H         63.34179       43.38463        3.80507
H         62.96143       43.66186        2.06324
H         64.20313       44.68015        2.89252
N         59.79261       44.30310        2.85923
C         59.64614       44.92315        1.54192
C         59.70171       46.44998        1.54202
O         59.77181       47.04836        2.60296
C         58.37959       44.33912        0.84766
C         57.06177       44.45242        1.59198
O         56.10978       44.97412        1.05416
O         56.88123       43.88946        2.80167
H         59.05719       43.66784        3.17606
H         60.51452       44.59352        0.93017
H         58.54819       43.24984        0.71784
H         58.27809       44.78404       -0.16491
N         59.80071       47.13306        0.35618
C         60.08752       48.56404        0.28325
C         59.14057       49.32426       -0.62082
O         59.58250       49.77585       -1.66885
H         59.79469       46.60087       -0.52875
H         61.10398       48.65827       -0.16146
H         60.12683       49.05147        1.27554
N         57.83100       49.54650       -0.31864
C         57.16486       49.10106        0.90169
C         57.66135       49.89247        2.12802
O         57.68670       51.11417        2.06808
C         55.63070       49.30571        0.74720
C         55.03595       48.70598       -0.52025
N         55.12682       47.38497       -0.77678
O         54.45711       49.43036       -1.31517
H         57.27009       50.06130       -1.01798
H         57.32304       48.01046        1.03019
H         55.40272       50.39222        0.74206
H         55.11953       48.85260        1.61859
H         55.61694       46.78019       -0.12526
H         54.71105       46.97397       -1.62701
N         57.99387       49.25853        3.29843
C         58.36900       49.95803        4.52839
C         57.21035       50.04754        5.51974
O         57.28067       50.85250        6.43802
H         57.88659       48.24850        3.35549
H         58.68231       50.99495        4.28708
H         59.24377       49.46065        5.00260
N         56.06873       49.32575        5.32110
C         54.80777       49.56133        6.01174
C         54.14895       48.27000        6.50851
O         54.29777       47.22681        5.89380
C         53.87520       50.29777        5.02075
C         54.40179       51.71232        4.76423
O         53.80309       49.63947        3.78082
H         56.04200       48.67736        4.54305
H         54.94383       50.22754        6.89278
H         52.85911       50.39678        5.45948
H         53.42731       48.74147        3.94099
H         53.69595       52.26304        4.11122
H         54.50422       52.26192        5.72424
H         55.39197       51.68516        4.25968
N         53.41350       48.29228        7.65762
C         52.86189       47.09386        8.30012
C         51.63712       46.50275        7.60962
O         50.67187       47.19558        7.32633
C         52.59340       47.29045        9.82415
C         53.90928       47.35058       10.64585
C         51.61089       48.43493       10.14722
C         54.93118       48.40171       10.23573
H         53.35442       49.19009        8.15173
H         53.65562       46.31952        8.29237
H         52.11524       46.36565       10.22693
H         54.41803       46.36816       10.55870
H         53.65233       47.48030       11.71892
H         50.57218       48.10407        9.93458
H         51.66226       48.69755       11.22456
H         51.79500       49.35971        9.57218
H         55.79088       48.35790       10.93559
H         55.33438       48.17455        9.22682
H         54.48434       49.41428       10.26098
N         51.60206       45.15314        7.45986
C         50.50107       44.34020        6.95735
C         49.88057       43.53756        8.12441
O         50.26280       43.76366        9.25207
C         51.03472       43.46341        5.78296
C         52.30138       42.67012        6.07163
O         53.49528       43.25510        6.32042
O         52.24768       41.45405        6.08838
H         52.41421       44.64939        7.79644
H         49.67318       44.97161        6.57126
H         51.22197       44.11106        4.90234
H         50.23501       42.74830        5.49545
N         48.86098       42.64225        7.91427
C         48.10298       41.93719        8.97440
C         48.97886       41.06948        9.88850
O         49.10808       41.38089       11.07125
C         47.20882       42.93176        9.74747
C         46.00052       42.25844       10.37661
C         46.02041       41.82420       11.71191
C         44.82236       42.08876        9.61906
C         44.88046       41.24120       12.28092
C         43.68595       41.51039       10.19450
C         43.71384       41.09065       11.52542
H         48.55674       42.47818        6.94758
H         47.38760       41.26291        8.45285
H         46.80035       43.66244        9.01665
H         47.78054       43.53974       10.48168
H         46.91070       41.94164       12.31275
H         44.78204       42.41417        8.58642
H         44.89847       40.91269       13.31163
H         42.78082       41.39357        9.61021
H         42.83052       40.65057       11.97201
N         49.63377       39.96274        9.42329
C         50.55114       39.15151       10.21042
C         51.69314       39.95884       10.79601
O         52.08107       39.71150       11.92556
C         51.01008       38.05939        9.22255
C         50.66015       38.61184        7.84484
C         49.41964       39.44500        8.09074
H         50.04752       38.65572       11.07128
H         52.07044       37.72978        9.31140
H         50.35476       37.17744        9.38183
H         51.46260       39.31615        7.54756
H         50.53455       37.84712        7.04585
H         49.33275       40.21091        7.29845
H         48.49880       38.82050        8.13341
N         52.24919       40.96671       10.08655
C         53.34100       41.77446       10.61720
C         52.93146       42.60663       11.83348
O         53.75410       42.81646       12.71586
C         53.85817       42.64557        9.47786
C         55.16635       43.34233        9.82035
C         55.88373       43.75515        8.58342
O         57.03267       43.13232        8.27554
O         55.43081       44.61051        7.84194
H         51.89925       41.15405        9.13662
H         54.17297       41.09212       10.89660
H         53.08030       43.36146        9.19531
H         54.04940       41.95856        8.62103
H         55.82675       42.60264       10.31329
H         55.00925       44.19343       10.50872
N         51.68389       43.14432       11.91990
C         51.22187       43.97622       13.01172
H         50.26831       43.56371       13.40708
H         51.95294       44.04121       13.84267
H         51.01735       44.99905       12.62735
H         51.02118       42.95311       11.17309
Ca        54.76727       44.63402        5.05999
O         53.73614       43.59270        2.78813
H         53.02412       44.01311        2.24703
H         53.33821       42.74945        3.11664
O         56.01427       46.54033        3.57684
H         56.80486       46.51768        2.99377
H         55.42724       47.20059        3.13891
O         57.87612       44.45268        5.66452
H         58.11791       44.19160        6.58055
H         58.74659       44.72800        5.29884
O         55.74404       41.86358        5.33228
H         55.07072       41.34091        5.83490
H         56.37540       42.17485        6.02595
O         53.19513       46.35908        3.17721
H         52.86582       46.40968        2.24596
H         52.42971       46.62029        3.74486

Ca 1.70



