%chk=loop1.cluster46.chk
%nprocshared=48
%mem=10GB
%nosave
#b3lyp/svp scf=(tight,noincore) Test 
#IOP(5/87=12) Density=Current Pop=(MK,readradii) iop(6/33=2) iop(6/42=6)

loop1.cluster46 

   0  1 

C         66.99352       47.89072       21.14984
C         68.23253       47.56791       20.38183
O         68.27623       46.50872       19.78285
H         66.15635       47.27504       20.75404
H         67.13758       47.65510       22.22214
H         66.72126       48.95811       21.01281
N         69.23512       48.49125       20.27186
C         70.40383       48.33662       19.40496
C         71.45189       47.43815       20.04885
O         72.49307       47.89197       20.50290
C         70.87674       49.73449       18.98997
C         71.91958       49.70716       17.93434
O         72.89156       50.41497       18.09217
O         71.82503       48.90504       16.84307
H         69.08520       49.40988       20.71820
H         70.09039       47.86568       18.45317
H         71.26583       50.30607       19.85878
H         70.01212       50.31110       18.59808
N         71.18155       46.11225       20.11759
C         71.98786       45.09137       20.75442
C         73.27021       44.79083       20.00363
O         74.05297       43.99553       20.50649
C         71.08606       43.83495       20.94257
C         70.16277       43.96563       22.17522
C         69.26905       42.71655       22.29361
C         68.24898       42.73632       23.45077
N         67.18022       43.70897       23.21640
H         70.33082       45.79656       19.66508
H         72.32492       45.43918       21.75385
H         71.69151       42.92065       21.07747
H         70.45097       43.68497       20.03561
H         69.54771       44.88798       22.09671
H         70.80342       44.03489       23.08460
H         69.93242       41.83521       22.42206
H         68.70007       42.57388       21.35028
H         68.73230       42.93009       24.43580
H         67.79022       41.72249       23.50292
H         67.49743       44.65420       23.52471
H         66.90980       43.73523       22.20576
H         66.33330       43.43083       23.76532
N         73.59001       45.41224       18.83027
C         74.92343       45.30247       18.24474
C         75.57122       46.66326       17.97784
O         76.69353       46.69479       17.49416
C         74.93933       44.32165       17.08491
C         74.14225       44.64027       15.89864
O         74.13618       43.83684       14.98244
O         73.45837       45.79059       15.80634
H         72.89528       46.00978       18.36077
H         75.60759       44.79875       18.95689
H         74.55189       43.35716       17.47607
H         75.98172       44.20628       16.72688
N         74.97199       47.82386       18.37860
C         75.67533       49.09174       18.45555
C         75.74562       49.86719       17.15616
O         76.21684       50.99565       17.18562
H         74.05353       47.78919       18.81653
H         76.69748       48.92127       18.85881
H         75.15444       49.71914       19.21471
N         75.33354       49.32650       15.96962
C         75.54987       50.00240       14.67927
C         74.61704       51.17342       14.39174
O         74.74739       51.79440       13.34641
C         75.66643       48.99785       13.50833
C         74.47581       48.11559       13.26886
O         73.43466       48.22645       14.09899
O         74.51650       47.23281       12.42546
H         74.98243       48.36081       15.97352
H         76.55873       50.45750       14.71190
H         76.51649       48.32959       13.75833
H         75.91825       49.57012       12.59198
N         73.71276       51.58256       15.31150
C         73.03569       52.86336       15.25573
C         71.63028       52.75967       14.74519
O         70.96910       53.78282       14.63278
H         73.60998       51.03689       16.14909
H         73.61189       53.57022       14.62437
H         73.01032       53.28562       16.28400
N         71.12009       51.55805       14.36449
C         69.80929       51.40635       13.76618
C         69.05317       50.26077       14.39609
O         69.65004       49.29768       14.84705
C         69.97386       51.20444       12.24009
C         70.09149       52.54228       11.53144
O         71.12476       50.44488       11.95220
H         71.71162       50.71761       14.41880
H         69.18133       52.30690       13.93668
H         69.07243       50.69535       11.81740
H         71.89793       51.02016       11.71062
H         69.14547       53.11195       11.61807
H         70.93257       53.09962       11.99108
H         70.32392       52.34465       10.46406
N         67.69425       50.28202       14.37541
C         66.87664       49.19828       14.88828
C         66.28804       48.45709       13.69983
O         65.59736       49.04373       12.87770
C         65.76983       49.72750       15.84960
C         66.39213       50.50177       17.04692
C         64.94452       48.53880       16.37771
C         65.41976       51.36437       17.87137
H         67.22258       51.08589       13.93760
H         67.49811       48.48613       15.47451
H         65.11365       50.40100       15.25693
H         67.17699       51.18988       16.67605
H         66.87368       49.76772       17.72820
H         65.58517       47.87565       17.00215
H         64.07872       48.88436       16.97230
H         64.55097       47.93318       15.54128
H         64.99950       52.20735       17.27936
H         64.58953       50.76932       18.30151
H         65.98472       51.82609       18.71119
N         66.52610       47.12957       13.58027
C         65.89737       46.27900       12.58475
C         64.56071       45.79016       13.07173
O         64.30815       45.83195       14.25620
C         66.79514       45.05400       12.24224
C         68.03138       45.45602       11.46000
O         67.18620       44.31455       13.36524
H         67.07470       46.69712       14.31278
H         65.71431       46.85236       11.65995
H         66.20758       44.36717       11.60633
H         67.90832       44.79858       13.82593
H         67.73114       45.95855       10.52271
H         68.65052       46.13520       12.07754
H         68.61569       44.54464       11.21559
N         63.67462       45.24227       12.19423
C         62.49669       44.48292       12.62600
C         62.89692       43.33595       13.50271
O         62.17188       43.00049       14.42891
C         61.73777       43.86740       11.42459
C         60.85880       44.91023       10.75114
O         62.63140       43.28541       10.50009
H         63.89221       45.30798       11.18859
H         61.81735       45.12220       13.22938
H         61.02395       43.09397       11.79957
H         62.54599       42.29736       10.57171
H         60.12245       45.25856       11.50654
H         61.44900       45.77924       10.39938
H         60.29135       44.46336        9.90681
N         64.02365       42.64729       13.23318
C         64.45193       41.53441       14.04959
C         64.80578       42.02172       15.45459
O         64.49397       41.35230       16.42663
C         65.64478       40.90086       13.35326
C         66.08301       39.60150       14.02083
C         67.37641       39.15455       13.35759
C         67.93751       37.82299       13.88270
N         68.01585       37.70842       15.34540
H         64.60376       42.93707       12.42912
H         63.64146       40.77503       14.08660
H         66.46724       41.65023       13.31482
H         65.35483       40.65709       12.30320
H         65.28971       38.83427       13.88971
H         66.25626       39.76290       15.10656
H         68.13038       39.96651       13.47296
H         67.19735       39.04256       12.26489
H         68.95887       37.74456       13.45829
H         67.33002       36.98044       13.48996
H         68.64800       36.90435       15.56562
H         68.40755       38.56975       15.78735
H         67.07802       37.48708       15.75763
N         65.43991       43.21449       15.61624
C         65.73638       43.82634       16.90914
C         64.47210       44.29678       17.58724
O         64.42335       44.30999       18.80811
C         66.68716       45.04148       16.73433
C         68.14468       44.55775       16.57798
C         69.17397       45.61068       16.23960
O         69.13469       46.20517       15.17870
O         70.21905       45.81231       17.05761
H         65.62709       43.75684       14.77871
H         66.24463       43.10045       17.57173
H         66.63917       45.70264       17.62460
H         66.32699       45.63867       15.88721
H         68.20364       43.77510       15.80022
H         68.42082       44.09712       17.55002
N         63.41194       44.71297       16.84805
C         62.20943       45.27767       17.39436
H         61.38662       44.56252       17.20333
H         62.30382       45.49571       18.47575
H         61.98764       46.22571       16.85342
H         63.43975       44.60368       15.84224
Ca        71.57198       47.51207       15.05114
O         71.52395       44.90517       13.58054
H         72.00852       44.96697       12.72328
H         72.17210       44.46172       14.16267
O         70.74443       47.49449       12.33207
H         70.53631       48.40089       12.05222
H         70.87419       47.06239       11.45822

Ca 1.70



