%chk=loop4.cluster147.chk
%nprocshared=48
%mem=10GB
%nosave
#b3lyp/svp scf=(tight,noincore) Test 
#IOP(5/87=12) Density=Current Pop=(MK,readradii) iop(6/33=2) iop(6/42=6)

loop4.cluster147 

   -3  1 
C         63.31402       59.40917       82.86894
C         64.22819       58.52225       83.67120
O         65.24949       58.09510       83.15615
H         62.41473       59.69960       83.45373
H         63.84838       60.33544       82.57053
H         62.97547       58.87248       81.95852
N         63.91715       58.21749       84.96234
C         64.72898       57.35975       85.82631
C         66.12935       57.90403       86.06090
O         67.06255       57.12305       86.19937
C         64.71045       55.88302       85.36678
C         63.31544       55.33764       85.36305
O         62.80177       54.92700       84.19148
O         62.64920       55.30166       86.38861
H         63.06198       58.62405       85.37096
H         64.25590       57.38592       86.83311
H         65.33297       55.25183       86.03259
H         65.11684       55.81144       84.33406
N         66.33165       59.24215       86.20942
C         67.56217       59.82928       86.74241
C         67.12964       60.78994       87.84929
O         66.28258       61.63215       87.57078
C         68.37580       60.57215       85.64142
C         68.72534       59.64464       84.44594
C         69.66402       61.18626       86.23317
C         69.71109       58.50873       84.75696
H         65.54731       59.87889       85.99084
H         68.23004       59.04381       87.13311
H         67.74960       61.39780       85.23660
H         69.17360       60.25324       83.63042
H         67.78523       59.20989       84.04851
H         69.42708       61.93747       87.01499
H         70.29752       60.40147       86.70015
H         70.26145       61.68798       85.44401
H         70.71941       58.91065       84.98750
H         69.37960       57.87871       85.60327
H         69.80538       57.86081       83.86260
N         67.62857       60.78001       89.12010
C         68.72946       59.93826       89.59342
C         68.38785       58.45930       89.59354
O         69.24814       57.65600       89.25320
C         69.18246       60.38807       90.99337
C         69.67310       61.81529       90.98012
O         70.59903       62.14069       90.25278
O         69.09681       62.73646       91.77559
H         67.23931       61.47470       89.77682
H         69.60297       60.09172       88.92490
H         70.02169       59.74342       91.32811
H         68.34144       60.28551       91.71339
N         67.11598       58.03780       89.83158
C         66.67925       56.68310       89.54157
C         67.20766       55.57444       90.41312
O         67.94193       55.80126       91.36445
H         66.39448       58.73486       90.07032
H         66.98870       56.43553       88.50932
H         65.57228       56.64481       89.58677
N         66.83566       54.30176       90.09023
C         67.33471       53.10417       90.75493
C         68.76853       52.77582       90.33653
O         69.36466       51.88818       90.93350
C         66.36644       51.91711       90.49924
C         66.09285       51.63670       89.04068
O         66.99488       51.31985       88.28884
O         64.83818       51.73688       88.56087
H         66.19387       54.18529       89.29322
H         67.32721       53.28011       91.85477
H         65.39118       52.16546       90.97382
H         66.75151       50.99674       90.98754
N         69.39041       53.44975       89.32071
C         70.79709       53.27644       88.99642
C         71.07711       52.27638       87.89482
O         72.14536       52.34512       87.30772
H         68.88090       54.18217       88.80670
H         71.39691       53.00265       89.89089
H         71.18468       54.26874       88.67934
N         70.19892       51.27111       87.61149
C         70.49125       50.17978       86.68452
C         70.78915       50.69532       85.28714
O         71.80696       50.33202       84.70718
C         71.60748       49.28122       87.28272
C         71.11640       48.60364       88.58032
C         72.17451       47.82001       89.31683
N         71.83646       47.12065       90.42572
O         73.33414       47.81937       88.92961
H         69.31520       51.22600       88.12126
H         69.57784       49.54971       86.59034
H         72.51100       49.89458       87.48675
H         71.89144       48.48048       86.56539
H         70.28846       47.91195       88.31180
H         70.72515       49.36358       89.28973
H         70.85968       47.10632       90.75605
H         72.54790       46.58799       90.94770
N         69.92483       51.55634       84.67546
C         70.13942       52.04867       83.31623
C         69.76472       50.97653       82.30429
O         69.06282       50.03243       82.64954
C         69.42611       53.42130       83.12012
C         70.15291       54.48354       83.96821
C         69.37596       53.90343       81.66359
H         69.09869       51.88319       85.20342
H         71.23057       52.22370       83.17440
H         68.36709       53.33726       83.45144
H         69.71625       55.48798       83.80141
H         70.08939       54.24873       85.05096
H         71.22941       54.52917       83.68436
H         68.81455       53.18136       81.03412
H         68.82086       54.86476       81.60882
H         70.39468       54.05524       81.25182
N         70.29521       51.01901       81.04696
C         70.15845       49.93952       80.08234
C         69.46689       50.39907       78.82174
O         69.85566       51.40862       78.24536
C         71.55812       49.41648       79.71229
C         71.47207       48.25913       78.74561
N         70.86935       47.10320       79.11032
O         71.94055       48.37158       77.62281
H         70.89846       51.81604       80.78876
H         69.58320       49.09490       80.51849
H         72.09354       49.08207       80.62567
H         72.14378       50.24513       79.25255
H         70.48006       46.99050       80.05757
H         70.79725       46.32015       78.44471
N         68.50711       49.60938       78.26775
C         67.90591       49.89363       76.97665
C         66.45085       49.49014       77.04848
O         65.93868       48.84850       76.13578
C         68.70044       49.09582       75.92117
C         68.48596       49.51951       74.49329
C         68.88875       50.80092       74.08350
C         67.96476       48.62302       73.54652
C         68.79677       51.17281       72.74099
C         67.86967       48.99943       72.20247
C         68.30003       50.27170       71.79441
O         68.25646       50.62945       70.49525
H         68.27769       48.71204       78.72409
H         67.96975       50.98671       76.77757
H         68.50023       48.01042       76.06684
H         69.78622       49.24593       76.10557
H         69.30603       51.49769       74.79999
H         67.65239       47.62966       73.84419
H         69.13456       52.15419       72.43286
H         67.48022       48.29724       71.47618
H         67.97409       50.01070       69.80685
N         65.74383       49.75165       78.18391
C         64.37203       49.32763       78.37098
C         63.49606       50.01013       77.32294
O         62.83750       49.29517       76.58463
C         63.93634       49.50537       79.84967
C         62.50771       49.01105       80.07533
C         62.08929       49.16362       81.50715
O         61.12566       49.85662       81.78811
O         62.75365       48.51596       82.48354
H         66.21694       50.24186       78.96038
H         64.32049       48.22467       78.20170
H         64.00940       50.54461       80.20953
H         64.63312       48.90701       80.48293
H         62.43226       47.94018       79.79307
H         61.82193       49.60334       79.43438
N         63.48036       51.36588       77.11283
C         64.13836       52.36695       77.95096
C         65.25079       53.12120       77.25332
O         65.50426       52.91827       76.07143
C         63.07946       53.39839       78.38651
C         61.91053       52.77737       79.15191
C         60.83541       53.80165       79.37089
O         60.40571       54.08015       80.61438
O         60.33087       54.37142       78.41535
H         62.91945       51.71183       76.31618
H         64.61557       51.92254       78.82675
H         62.69193       53.87382       77.45723
H         63.52374       54.19691       79.01640
H         62.27207       52.36999       80.11875
H         61.46669       51.94984       78.56414
N         65.95120       54.04783       77.96880
C         66.96107       54.90514       77.39837
H         67.80862       54.30946       77.00482
H         66.51402       55.53008       76.59675
H         67.34011       55.58769       78.19173
H         65.73734       54.16862       78.97095
Ca        60.77159       55.47396       83.37530
O         62.31775       52.77466       82.63710
H         61.76890       51.97982       82.84000
H         63.17458       52.60674       83.10248
O         59.54918       53.26048       84.41217
H         60.15228       53.16779       85.19213
H         59.35898       52.33445       84.12280
O         62.74848       55.93489       81.14851
H         62.54916       56.57528       80.42030
H         63.72232       56.02194       81.30198

Ca 1.70



