%chk=loop3.cluster129.chk
%nprocshared=48
%mem=10GB
%nosave
#b3lyp/svp scf=(tight,noincore) Test 
#IOP(5/87=12) Density=Current Pop=(MK,readradii) iop(6/33=2) iop(6/42=6)

loop3.cluster129 

   0  1 
C         -2.18773      -21.61361       32.81185
C         -2.92522      -22.70211       32.09058
O         -3.82632      -23.29317       32.66998
H         -1.31506      -21.26153       32.22271
H         -2.87609      -20.75726       32.97068
H         -1.82567      -21.97894       33.79555
N         -2.62017      -22.99341       30.79356
C         -3.33293      -23.99529       30.01492
C         -2.34515      -25.03981       29.51477
O         -1.37292      -24.70005       28.85162
C         -4.10903      -23.28635       28.88899
C         -4.99288      -24.19701       28.09256
O         -5.04147      -25.50684       28.36496
O         -5.70186      -23.73961       27.21251
H         -1.88407      -22.44592       30.32082
H         -4.09742      -24.50154       30.64618
H         -3.41006      -22.76211       28.20563
H         -4.78042      -22.53857       29.36486
N         -2.52354      -26.34324       29.86432
C         -1.56393      -27.40764       29.57896
C         -1.63559      -27.89762       28.12523
O         -0.72438      -28.57710       27.67644
C         -1.86996      -28.53515       30.57816
C         -0.81917      -29.63476       30.70697
C         -1.19973      -30.63559       31.81605
C         -2.52720      -31.35825       31.52024
N         -2.77042      -32.43985       32.46997
H         -3.34020      -26.56813       30.45243
H         -0.54632      -27.01188       29.80128
H         -2.86013      -28.95439       30.30259
H         -1.95099      -28.07032       31.58725
H          0.15364      -29.16871       30.97925
H         -0.69780      -30.17453       29.74584
H         -1.27452      -30.11459       32.79901
H         -0.38165      -31.38209       31.88710
H         -2.49014      -31.78355       30.49402
H         -3.37565      -30.64186       31.57751
H         -2.01655      -33.15929       32.38447
H         -2.80434      -32.06878       33.44684
H         -3.68834      -32.88588       32.24085
N         -2.71695      -27.59327       27.34813
C         -2.85233      -27.92478       25.93140
C         -2.96108      -26.65318       25.07280
O         -3.00843      -26.77565       23.85582
C         -4.06111      -28.87780       25.71307
C         -5.34362      -28.40965       26.34753
O         -5.85951      -27.21357       26.04965
O         -5.90317      -29.10804       27.17519
H         -3.49141      -27.09195       27.77889
H         -1.94913      -28.46215       25.56689
H         -3.81707      -29.86119       26.16976
H         -4.21981      -29.04001       24.62542
N         -2.95582      -25.39920       25.62745
C         -2.94020      -24.17290       24.83610
C         -4.20065      -23.87125       24.04084
O         -4.20408      -22.88130       23.32301
H         -2.88239      -25.29172       26.64546
H         -2.06759      -24.20632       24.15075
H         -2.79496      -23.31163       25.52545
N         -5.32102      -24.63716       24.14889
C         -6.55903      -24.36502       23.42724
C         -7.62857      -23.97454       24.42449
O         -7.85627      -24.72276       25.36020
C         -6.97663      -25.62087       22.62419
C         -8.13094      -25.37517       21.67242
N         -8.49423      -26.33323       20.78925
O         -8.71927      -24.30344       21.67068
H         -5.31066      -25.42656       24.79136
H         -6.41190      -23.54016       22.69816
H         -7.22878      -26.46584       23.30746
H         -6.10762      -25.93231       22.00768
H         -7.99343      -27.23300       20.75508
H         -9.25779      -26.15887       20.11840
N         -8.30975      -22.79606       24.30619
C         -9.31881      -22.37256       25.27332
C        -10.68692      -23.03838       25.11825
O        -11.69106      -22.36235       25.29923
H         -8.04857      -22.14272       23.55283
H         -9.47777      -21.27775       25.15703
H         -8.93012      -22.50919       26.30552
N        -10.80996      -24.35252       24.78344
C        -12.07934      -25.06173       24.69065
C        -12.54776      -25.50933       26.06526
O        -11.80673      -26.17432       26.77312
C        -11.89296      -26.30735       23.79406
C        -13.00715      -27.30959       23.97156
C        -12.73711      -28.51704       24.63849
C        -14.31200      -27.03615       23.53812
C        -13.75240      -29.44057       24.86616
C        -15.32875      -27.97328       23.75490
C        -15.04885      -29.17918       24.41968
O        -16.01788      -30.09012       24.63382
H         -9.96894      -24.88739       24.56731
H        -12.85610      -24.43144       24.20145
H        -10.94935      -26.80424       24.08666
H        -11.77595      -26.00823       22.72920
H        -11.74185      -28.73156       25.00452
H        -14.53809      -26.10335       23.03663
H        -13.52894      -30.35913       25.39378
H        -16.33276      -27.76159       23.41241
H        -16.92160      -29.95339       24.31846
N        -13.82884      -25.27996       26.44555
C        -14.42864      -25.75468       27.68387
C        -14.45950      -27.28043       27.81113
O        -13.43753      -27.90265       28.04258
C        -13.78604      -25.11754       28.95098
C        -14.44338      -25.62762       30.26701
C        -13.83506      -23.58576       28.86759
C        -15.96094      -25.42192       30.35750
H        -14.44046      -24.75223       25.80094
H        -15.47966      -25.40259       27.64760
H        -12.71321      -25.40548       29.00689
H        -13.96011      -25.13078       31.13472
H        -14.24216      -26.71410       30.37628
H        -13.27298      -23.23084       27.97820
H        -14.88035      -23.22357       28.78824
H        -13.36087      -23.14066       29.76733
H        -16.49426      -25.96337       29.55099
H        -16.32942      -25.83331       31.31944
H        -16.22544      -24.34857       30.30647
N        -15.66945      -27.90696       27.78782
C        -15.87716      -29.28027       28.25498
C        -17.32296      -29.69179       28.01793
O        -17.55125      -30.76772       27.47626
C        -15.57373      -29.38552       29.76787
O        -16.37075      -28.49238       30.49558
H        -16.48610      -27.35712       27.50139
H        -15.20587      -29.98396       27.71523
H        -14.50325      -29.16113       29.96137
H        -15.77990      -30.42587       30.10755
H        -16.11558      -28.59525       31.44815
N        -18.35084      -28.86748       28.38612
C        -19.76640      -29.16084       28.20408
C        -20.25281      -30.29978       29.09534
O        -20.70443      -31.30535       28.57024
C        -20.10649      -29.36671       26.71314
H        -18.11933      -27.94925       28.79624
H        -20.36260      -28.27724       28.51872
H        -19.52254      -30.18163       26.24234
H        -21.18282      -29.61946       26.60372
H        -19.91802      -28.42704       26.15250
N        -20.28208      -30.20296       30.46444
C        -19.72433      -29.10324       31.25540
C        -20.80097      -28.37334       32.05574
O        -21.92296      -28.86216       32.08293
C        -18.71780      -29.74779       32.21367
H        -20.71101      -30.98805       30.98359
H        -19.23009      -28.36906       30.61050
H        -19.25639      -30.41138       32.92870
H        -18.00539      -30.38099       31.64349
H        -18.14294      -29.00586       32.78577
N        -20.58135      -27.21964       32.77031
C        -19.36576      -26.39549       32.76843
C        -19.68023      -24.94943       32.36038
O        -18.95191      -24.39943       31.54416
C        -18.62550      -26.41669       34.13030
C        -19.46617      -26.11232       35.37730
C        -18.57430      -26.00343       36.58277
O        -18.64586      -26.91938       37.56666
O        -17.78207      -25.07808       36.67454
H        -21.36687      -26.88084       33.34328
H        -18.61545      -26.77354       32.04353
H        -17.77472      -25.70081       34.05764
H        -18.18465      -27.42089       34.29181
H        -20.18949      -26.94439       35.51884
H        -20.02282      -25.16076       35.29004
N        -20.73766      -24.26338       32.89092
C        -21.01325      -22.88209       32.54518
H        -21.94610      -22.54562       33.04876
H        -20.18108      -22.22921       32.88512
H        -21.15017      -22.77102       31.44851
H        -21.37948      -24.72589       33.54729
Ca        -7.42322      -26.36142       27.41814
O         -9.18758      -27.55097       25.81486
H         -9.36938      -28.21110       25.10415
H         -9.92997      -27.65562       26.45870
O         -9.03142      -27.83542       29.10608
H         -9.99807      -27.77574       29.30401
H         -8.70431      -28.60403       29.63619
O         -9.47247      -24.68670       28.31033
H        -10.05444      -24.78118       27.52159
H        -10.08015      -24.46428       29.05752
O         -7.37128      -24.85399       30.00990
H         -7.42305      -23.90290       29.73835
H         -6.94367      -24.83991       30.90037
O         -6.20260      -27.65363       29.69434
H         -5.64188      -27.15029       30.33337
H         -5.74523      -28.52354       29.59260

Ca 1.70



