%chk=loop4.cluster83.chk
%nprocshared=48
%mem=10GB
%nosave
#b3lyp/svp scf=(tight,noincore) Test 
#IOP(5/87=12) Density=Current Pop=(MK,readradii) iop(6/33=2) iop(6/42=6)

loop4.cluster83 

   -3  1 
C         39.45453       86.47565       76.54197
C         39.05208       87.61387       75.65074
O         39.44565       88.73622       75.90943
H         40.27811       86.78789       77.21970
H         38.59493       86.09893       77.13046
H         39.85205       85.65308       75.90673
N         38.30860       87.36003       74.53680
C         38.06186       88.28064       73.42113
C         39.36341       88.53635       72.65931
O         39.50803       88.04459       71.54915
C         37.33456       89.60876       73.74863
C         36.30917       89.54455       74.83977
O         36.39774       90.39927       75.87595
O         35.37455       88.76505       74.77816
H         37.97222       86.39212       74.40831
H         37.37846       87.71756       72.74202
H         36.85176       89.96779       72.81168
H         38.05692       90.38553       74.04411
N         40.35565       89.30414       73.20728
C         41.66798       89.49987       72.61679
C         41.76225       90.91925       72.08168
O         42.36427       91.77759       72.71316
C         42.78780       89.22584       73.68133
C         44.22333       89.44300       73.11827
C         42.68212       87.84137       74.34226
C         44.63393       88.50390       71.97871
H         40.18699       89.78468       74.08973
H         41.81921       88.80653       71.76378
H         42.64502       89.96280       74.50468
H         44.94754       89.33278       73.94867
H         44.33738       90.47669       72.74607
H         41.69032       87.70113       74.81014
H         42.84385       87.01907       73.61859
H         43.43992       87.76399       75.15383
H         44.64022       87.44623       72.30745
H         43.96734       88.61794       71.09963
H         45.66374       88.75736       71.65313
N         41.21629       91.21695       70.87291
C         41.46428       92.48284       70.18639
C         40.20765       93.32498       70.11108
O         39.12598       92.75999       70.03262
C         42.15166       92.25713       68.81126
C         41.51380       91.26759       67.86031
O         41.27003       91.59837       66.71109
O         41.33531       89.98284       68.22510
H         40.64541       90.49903       70.40798
H         42.20136       93.06321       70.75811
H         43.17096       91.87088       69.01336
H         42.25998       93.23684       68.29556
N         40.23659       94.69638       70.16389
C         41.44085       95.52185       70.28070
C         42.12175       95.35332       71.63044
O         41.41592       95.19944       72.61573
H         39.33481       95.19569       70.11078
H         41.12222       96.58550       70.22830
H         42.11505       95.34227       69.41947
N         43.48082       95.35981       71.79240
C         44.43645       95.75568       70.76751
C         44.98273       94.57188       69.97874
O         44.90514       94.63186       68.75966
C         45.52403       96.67511       71.38484
C         46.52823       97.13126       70.36139
O         47.37270       96.24361       69.80487
O         46.58907       98.30660       70.03856
H         43.84553       95.22236       72.74792
H         43.94234       96.43027       70.03242
H         46.07415       96.20123       72.22077
H         45.00712       97.56661       71.80690
N         45.59742       93.48552       70.53063
C         45.68709       93.17885       71.95402
C         46.75454       92.12790       72.16021
O         46.77616       91.14281       71.42998
H         45.99140       92.79961       69.86506
H         44.69773       92.83844       72.31611
H         45.99420       94.06675       72.53141
N         47.74842       92.32782       73.07373
C         49.02122       91.62693       72.99068
C         49.30753       90.70203       74.16200
O         50.33040       90.03839       74.13409
C         50.15292       92.67900       72.85041
C         49.77546       93.81718       71.87300
C         50.88634       94.79780       71.60278
N         50.61407       95.95067       70.94936
O         52.02780       94.56420       71.97043
H         47.66485       93.10752       73.74633
H         49.03893       90.99342       72.07471
H         51.08430       92.16345       72.53162
H         50.33865       93.15993       73.83835
H         48.94361       94.39603       72.33203
H         49.42113       93.40816       70.90356
H         49.65028       96.17351       70.67026
H         51.35943       96.63232       70.74917
N         48.46608       90.61831       75.23738
C         48.75768       89.71978       76.35650
C         47.93937       90.05429       77.57685
O         46.73603       90.22678       77.48847
C         48.59010       88.21903       75.99276
C         47.20279       87.89884       75.42440
C         48.85867       87.31787       77.21853
H         47.63389       91.22042       75.28134
H         49.81918       89.87359       76.64761
H         49.34378       87.97563       75.21625
H         46.40436       88.07768       76.17557
H         47.00945       88.52201       74.52969
H         47.16043       86.83275       75.11953
H         48.85026       86.24963       76.92427
H         49.84211       87.55493       77.67742
H         48.07294       87.45648       77.99620
N         48.57101       90.08468       78.78420
C         47.87612       90.36884       80.02061
C         47.96669       91.85382       80.30930
O         47.24001       92.33217       81.16913
C         48.49003       89.52301       81.14569
C         47.73397       89.66920       82.43595
N         48.27400       90.35428       83.46904
O         46.62009       89.17904       82.54444
H         49.58858       89.93396       78.82397
H         46.80924       90.09200       79.90068
H         49.54559       89.84897       81.27325
H         48.50653       88.44594       80.86472
H         49.19548       90.80572       83.37272
H         47.75283       90.46272       84.35064
N         48.83133       92.65780       79.62069
C         48.79658       94.10457       79.71547
C         47.56332       94.60553       78.97723
O         47.24417       94.10864       77.90399
C         50.09357       94.71069       79.16220
C         50.10774       96.22120       79.22856
C         50.23248       96.95715       78.04290
C         50.01151       96.90548       80.45791
C         50.26926       98.35078       78.07596
C         50.04688       98.30544       80.48748
C         50.18153       99.03047       79.29799
O         50.23258      100.37718       79.33629
H         49.51391       92.23966       78.96994
H         48.76046       94.39837       80.78768
H         50.23697       94.36725       78.11562
H         50.94928       94.32868       79.76375
H         50.30446       96.44781       77.09113
H         49.91571       96.36111       81.38966
H         50.36975       98.90094       77.15013
H         49.97753       98.82811       81.43440
H         50.35148      100.90203       78.53121
N         46.78375       95.54652       79.56712
C         45.46864       95.99027       79.11097
C         44.36328       94.94414       79.25093
O         43.20617       95.34113       79.20647
C         45.43304       96.67286       77.72915
C         46.37521       97.87984       77.65577
C         46.01189       98.75293       76.49016
O         45.27077       99.86023       76.69549
O         46.31201       98.42748       75.35345
H         47.13690       95.97328       80.43677
H         45.17667       96.77820       79.84291
H         44.39288       97.06077       77.61495
H         45.62187       95.96679       76.89329
H         47.43914       97.56545       77.60682
H         46.24063       98.48907       78.57461
N         44.61455       93.62536       79.52157
C         43.56233       92.73226       79.98895
C         43.52726       92.74999       81.51293
O         42.59017       92.21263       82.08704
C         43.77297       91.28731       79.48710
C         43.78923       91.13623       77.96093
C         42.51043       91.57568       77.33935
O         41.35502       90.99304       77.69725
O         42.51546       92.45830       76.49844
H         45.57741       93.29344       79.60559
H         42.57077       93.09695       79.64142
H         42.97256       90.63425       79.90029
H         44.73949       90.91372       79.87606
H         43.93721       90.06350       77.70946
H         44.62468       91.72335       77.52645
N         44.50558       93.37388       82.23808
C         44.45423       93.47742       83.67543
H         43.54789       94.04626       83.96790
H         44.44838       92.47106       84.14251
H         45.34849       94.03385       84.03223
H         45.31231       93.80537       81.77132
Ca        38.61489       91.14589       77.41428
O         37.14140       92.71664       79.15569
H         37.67094       93.52441       79.36996
H         36.20913       92.95906       79.37705
O         39.36571       89.84889       79.84635
H         40.18380       89.56909       79.36650
H         39.23407       89.14825       80.53093
O         39.62497       93.78141       77.68142
H         40.53834       93.50718       77.43404
H         39.75500       94.62597       78.17655
O         36.80222       89.35986       78.44961
H         37.07240       88.49617       78.04808
H         36.31935       89.12447       79.27875
O         39.69204       91.96480       75.06863
H         40.65769       92.10967       74.92958
H         39.24944       92.51349       74.37693

Ca 1.70



