%chk=loop2.cluster44.chk
%nprocshared=48
%mem=10GB
%nosave
#b3lyp/svp scf=(tight,noincore) Test 
#IOP(5/87=12) Density=Current Pop=(MK,readradii) iop(6/33=2) iop(6/42=6)

loop2.cluster44 

   -2  1 
C         54.44189       46.81799       12.42769
C         55.19773       47.66859       11.44968
O         55.21724       47.34401       10.27062
H         53.39047       46.70704       12.08971
H         54.91384       45.81449       12.48876
H         54.44190       47.27127       13.44124
N         55.88648       48.76485       11.87713
C         56.65892       49.59764       10.95913
C         55.72586       50.52292       10.18744
O         54.59162       50.70401       10.60343
C         57.65122       50.46050       11.78207
C         58.72897       51.16576       10.99810
O         59.43827       52.14444       11.58919
O         59.08781       50.74559        9.91016
H         55.91161       48.97060       12.88841
H         57.23323       48.92156       10.28758
H         58.18552       49.82236       12.51708
H         57.06757       51.20879       12.36461
N         56.17750       51.22798        9.11184
C         55.40527       52.30154        8.48974
C         54.17452       51.75244        7.78158
O         54.10139       50.53952        7.64128
C         56.32178       53.03917        7.50878
H         57.12278       51.04115        8.76313
H         55.13360       52.99835        9.30145
H         55.87376       53.95252        7.09663
H         57.23988       53.35612        8.04689
H         56.60950       52.36549        6.67346
N         53.15553       52.52382        7.27813
C         53.01521       53.98968        7.34763
C         53.00493       54.53694        8.77302
O         52.94372       53.75799        9.69969
C         51.77262       54.44824        6.53087
C         50.43486       53.85913        6.93253
O         50.24791       52.65566        6.90857
O         49.39684       54.66394        7.19775
H         52.42748       52.00661        6.77645
H         53.87942       54.44001        6.83802
H         51.93867       54.14495        5.47595
H         51.70642       55.55706        6.55637
N         53.17936       55.87373        9.01886
C         53.38270       56.40791       10.36899
C         52.56038       57.65315       10.66930
O         53.14926       58.72315       10.72419
H         53.31075       56.51257        8.22005
H         54.45104       56.71564       10.41715
H         53.24847       55.65559       11.17044
N         51.21245       57.64298       10.89259
C         50.38523       56.44743       10.87197
C         50.50839       55.68285       12.19584
O         50.08506       56.19440       13.22444
C         48.89594       56.83796       10.64657
C         48.68877       57.86528        9.54566
N         49.08338       57.62841        8.27690
O         48.16683       58.93605        9.81873
H         50.74988       58.55350       11.04319
H         50.69579       55.83285       10.00245
H         48.49156       57.29217       11.57742
H         48.29893       55.92523       10.43226
H         49.55402       56.75623        8.03767
H         48.93544       58.33427        7.53986
N         51.07847       54.44737       12.24091
C         51.12614       53.62298       13.43941
C         49.76285       53.05920       13.75594
O         49.47570       52.78204       14.91047
H         51.46224       54.05136       11.38440
H         51.57646       54.16547       14.29953
H         51.77359       52.74199       13.23465
N         48.87509       52.84720       12.74372
C         47.54380       52.29265       12.92959
C         47.41243       51.02392       12.09753
O         48.33914       50.68330       11.37805
C         46.48362       53.38557       12.63651
C         46.69409       54.57504       13.59035
O         46.57011       53.83062       11.30932
H         49.15118       53.09820       11.79336
H         47.40576       51.97436       13.98327
H         45.47638       52.95176       12.81251
H         45.83531       54.48375       11.16525
H         46.69201       54.22914       14.64565
H         47.66335       55.07726       13.38354
H         45.88744       55.32438       13.45989
N         46.30828       50.23105       12.20484
C         46.27233       48.88217       11.63509
C         45.51354       48.78363       10.32255
O         44.42451       49.31937       10.18049
C         45.82194       47.78598       12.64364
C         46.89622       47.54923       13.73346
C         44.44589       48.09165       13.27096
C         46.69013       46.22445       14.47351
H         45.52292       50.55339       12.78409
H         47.30631       48.57902       11.36548
H         45.75140       46.84273       12.05443
H         46.91543       48.40299       14.44367
H         47.90115       47.47145       13.26153
H         44.08578       47.24802       13.89017
H         44.50243       48.98054       13.93434
H         43.68450       48.27805       12.48802
H         47.46884       46.10493       15.25498
H         45.69870       46.15982       14.96075
H         46.78748       45.38556       13.75180
N         46.03788       47.98502        9.34602
C         45.42111       47.72076        8.05303
C         45.96331       46.44690        7.43452
O         47.08908       46.05471        7.69104
C         45.56561       48.90215        7.07010
C         46.87858       49.62219        7.17665
O         46.92036       50.81269        7.80715
O         47.89551       49.15338        6.69040
H         46.89889       47.47703        9.56958
H         44.34200       47.50680        8.22051
H         44.78634       49.64163        7.32564
H         45.38794       48.58794        6.01499
N         45.15876       45.73601        6.60254
C         45.54088       44.46900        5.99292
C         45.76554       43.41444        7.08692
O         44.87872       43.22959        7.91695
C         44.40953       44.06064        5.02776
C         44.65660       42.80809        4.23075
C         43.99142       41.62475        4.58110
C         45.49553       42.82203        3.10030
C         44.15998       40.46875        3.81808
C         45.64935       41.66309        2.32889
C         44.98168       40.48825        2.68869
H         44.22001       46.11700        6.40326
H         46.45041       44.63579        5.38193
H         44.22504       44.88622        4.30256
H         43.47494       43.94965        5.61822
H         43.34264       41.60178        5.44729
H         46.00440       43.73115        2.80235
H         43.64302       39.56088        4.09810
H         46.27688       41.67651        1.44643
H         45.09568       39.59380        2.09022
N         46.91800       42.67089        7.16243
C         47.16713       41.64138        8.15418
C         48.05626       42.14282        9.30560
O         48.54724       41.32316       10.06302
C         47.93098       40.61381        7.31029
C         48.82420       41.50503        6.44944
C         47.89083       42.65753        6.08600
H         46.24917       41.16906        8.57405
H         48.47098       39.82846        7.88312
H         47.19563       40.11209        6.64083
H         49.63693       41.89483        7.09789
H         49.27236       41.00039        5.56575
H         48.43614       43.61834        5.97152
H         47.35625       42.39322        5.15164
N         48.29476       43.48054        9.49129
C         49.21993       43.99552       10.50957
C         48.93928       43.52551       11.92466
O         49.85093       43.59905       12.74152
C         49.26276       45.54673       10.50114
C         50.04984       46.08785        9.30199
C         50.18259       47.57818        9.32660
O         49.10247       48.35807        9.19934
O         51.28687       48.09079        9.39770
H         47.83437       44.15097        8.87544
H         50.23152       43.59914       10.26948
H         49.78293       45.91528       11.41199
H         48.22324       45.94032       10.53425
H         49.58035       45.79246        8.34330
H         51.07378       45.66028        9.34296
N         47.73257       43.03418       12.31147
C         47.53370       42.53466       13.65546
H         46.48037       42.21969       13.79654
H         48.19771       41.65975       13.82873
H         47.77994       43.32016       14.40200
H         46.94169       43.01727       11.65061
Ca        49.46003       50.52442        8.82477
O         51.61324       51.04130       10.41673
H         52.15479       50.21628       10.41930
H         52.26849       51.75186       10.59465
O         49.07194       53.03231        9.44763
H         49.46603       53.92259        9.59957
H         48.12260       53.11941        9.69589
O         51.07610       49.90588        6.72804
H         51.92712       49.61585        7.13670
H         51.15301       49.66046        5.77509

Ca 1.70



