%chk=loop1.cluster18.chk
%nprocshared=48
%mem=10GB
%nosave
#b3lyp/svp scf=(tight,noincore) Test 
#IOP(5/87=12) Density=Current Pop=(MK,readradii) iop(6/33=2) iop(6/42=6)

loop1.cluster18 

   0  1 
C         36.57165       81.66812       26.40116
C         36.66306       81.05662       27.76512
O         37.66940       80.44311       28.07963
H         36.04466       82.64400       26.46398
H         37.58544       81.85622       25.98820
H         36.00409       80.99325       25.72855
N         35.65433       81.24929       28.65836
C         35.69991       80.75682       30.03465
C         35.57027       79.25067       30.14645
O         35.85170       78.71777       31.21095
C         34.62584       81.42609       30.91874
C         33.22940       81.20216       30.42503
O         32.82455       81.82805       29.46264
O         32.39759       80.37309       31.08230
H         34.86490       81.82956       28.35324
H         36.67167       81.03817       30.47148
H         34.79633       82.52274       30.96623
H         34.71172       81.02897       31.95256
N         35.07744       78.50549       29.11977
C         34.89528       77.06891       29.23859
C         36.25369       76.38430       29.01550
O         37.04311       76.93703       28.26265
C         33.80250       76.57499       28.23931
C         32.37405       77.08633       28.56495
C         31.96710       78.43514       27.93905
C         30.62281       78.89532       28.53344
N         30.28755       80.26356       28.13996
H         34.80134       78.96817       28.24641
H         34.49917       76.85561       30.25126
H         33.73755       75.49069       28.37549
H         34.06369       76.74629       27.17240
H         32.27514       77.12793       29.67188
H         31.63060       76.34453       28.19977
H         31.89189       78.33949       26.83006
H         32.70857       79.21290       28.16954
H         30.71152       78.87175       29.64117
H         29.80225       78.20535       28.23796
H         30.08539       80.33066       27.11891
H         29.46454       80.58917       28.69711
H         31.07727       80.89771       28.35762
N         36.62774       75.18157       29.56896
C         35.84556       74.37901       30.50318
C         36.70233       73.83188       31.66124
O         36.57162       72.65559       31.96995
C         35.16743       73.22907       29.70914
C         36.14421       72.40715       28.90663
O         36.86324       71.43356       29.49448
O         36.27161       72.61127       27.70907
H         37.53792       74.79201       29.27613
H         35.04206       74.97505       30.97012
H         34.46602       73.66908       28.98906
H         34.54460       72.57176       30.35294
N         37.57145       74.58961       32.39704
C         37.91773       75.97535       32.11433
C         38.84599       76.53733       33.18923
O         38.73744       76.10669       34.32984
H         38.04617       74.11849       33.18417
H         37.00306       76.59766       32.08687
H         38.41938       75.98099       31.13179
N         39.77395       77.51548       32.95878
C         40.02310       78.17293       31.68307
C         39.82550       79.66940       31.81006
O         40.29689       80.26436       32.76662
C         41.48627       77.96218       31.23718
C         41.83839       76.58875       30.76552
O         41.02659       75.67743       30.78646
O         43.01941       76.42643       30.14410
H         40.35195       77.82042       33.75797
H         39.37476       77.81300       30.86443
H         42.20512       78.30618       32.01082
H         41.65170       78.57988       30.33557
N         39.30881       80.35374       30.75188
C         39.40038       81.80392       30.64543
C         40.53031       82.20187       29.72274
O         40.77829       83.39529       29.58853
H         39.01673       79.82214       29.92358
H         39.58610       82.26257       31.63732
H         38.45619       82.22686       30.25224
N         41.28599       81.26781       29.07141
C         42.40058       81.59715       28.20362
C         42.15449       81.00259       26.83224
O         41.28592       80.14293       26.69866
C         43.70894       81.06421       28.83486
C         43.90932       81.63650       30.24357
O         44.80876       81.42413       28.03797
H         41.07631       80.26988       29.18846
H         42.48527       82.70013       28.09045
H         43.64349       79.95291       28.94393
H         45.24909       80.58592       27.73846
H         43.10118       81.29132       30.92548
H         44.87694       81.29491       30.66596
H         43.89941       82.74664       30.21261
N         42.82247       81.46439       25.74021
C         42.54675       80.96084       24.40252
C         43.82676       80.70897       23.62929
O         44.48545       81.65299       23.21079
C         41.51775       81.86793       23.66435
C         41.30274       81.46492       22.18351
C         41.84999       83.36697       23.76609
C         40.86949       80.00812       22.01837
H         43.47308       82.26018       25.85209
H         42.04223       79.97416       24.49137
H         40.54466       81.74661       24.19221
H         42.22601       81.63603       21.58577
H         40.50274       82.10929       21.76100
H         41.05540       83.96495       23.27074
H         41.86322       83.68458       24.83119
H         42.82601       83.61065       23.30297
H         41.69187       79.32186       22.29294
H         39.98946       79.79252       22.65886
H         40.60732       79.81033       20.95904
N         44.22770       79.42362       23.40380
C         45.38413       79.05767       22.58680
C         45.04488       78.00998       21.50120
O         45.88299       77.75024       20.65111
C         46.50854       78.54451       23.52303
C         46.14130       77.21222       24.19511
O         46.76056       79.49187       24.53095
H         43.70605       78.67752       23.88320
H         45.76368       79.96805       22.06856
H         47.44523       78.37351       22.94553
H         47.04772       80.33043       24.08388
H         45.17990       77.27377       24.74358
H         46.06378       76.40543       23.43895
H         46.92628       76.92748       24.92416
N         43.84373       77.34752       21.50615
C         43.42268       76.29115       20.58211
C         44.16927       74.97289       20.79121
O         45.20517       74.94163       21.44077
C         43.34999       76.74753       19.09450
C         42.53564       78.04160       18.91788
O         42.81121       75.73232       18.27839
H         43.16031       77.57256       22.23307
H         42.38926       76.05666       20.89895
H         44.37300       76.94735       18.71984
H         41.82643       75.85016       18.21273
H         41.49721       77.90618       19.29385
H         43.00944       78.88733       19.45352
H         42.48423       78.28891       17.83540
N         43.61538       73.81781       20.30794
C         44.17010       72.48608       20.46993
C         43.27085       71.43578       21.19080
O         43.76908       70.32115       21.27614
C         44.45287       71.91698       19.04707
C         45.31731       72.80174       18.13099
C         46.78767       72.88945       18.56159
C         47.57456       73.91999       17.72919
N         47.67629       73.55987       16.31286
H         42.78343       73.89550       19.73392
H         45.12209       72.53703       21.04210
H         43.46630       71.80624       18.54285
H         44.91459       70.90650       19.10492
H         44.87160       73.81657       18.08240
H         45.27990       72.36492       17.11032
H         47.26681       71.88704       18.48451
H         46.84122       73.21833       19.61876
H         48.60018       73.99851       18.15087
H         47.08922       74.91698       17.82686
H         48.27184       74.27072       15.82881
H         48.12523       72.62128       16.20935
H         46.73716       73.56245       15.85566
N         41.99434       71.57333       21.71663
C         41.11595       72.73476       21.88649
C         40.68130       73.37818       20.59182
O         40.54928       74.59259       20.52995
C         41.66842       73.67510       22.97576
C         41.57942       72.99846       24.35571
C         42.33125       73.77659       25.38795
O         43.29082       73.17098       26.11307
O         42.09104       74.95857       25.56556
H         41.58596       70.70042       22.08955
H         40.14570       72.35596       22.28412
H         41.07720       74.61580       23.03588
H         42.71832       73.93110       22.74368
H         42.00103       71.97079       24.32890
H         40.50718       72.92299       24.64767
N         40.43100       72.60995       19.49792
C         40.08746       73.19557       18.22112
H         39.17374       73.81889       18.31348
H         40.92843       73.81810       17.85600
H         39.91407       72.39458       17.47442
H         40.51978       71.58594       19.56319
Ca        43.16084       75.04805       28.37935
O         40.66445       76.21462       27.63054
H         40.05883       75.87069       26.92734
H         40.24833       77.05777       27.93642
O         45.06400       73.83640       29.83516
H         45.28207       74.06920       30.77109
H         45.92023       73.55834       29.42573
O         43.63651       77.76566       27.37530
H         44.27412       78.38321       26.93867
H         42.74611       78.15584       27.19599
O         45.69740       75.33833       27.00789
H         46.33060       75.85399       27.56763
H         46.27087       74.79157       26.41508
O         41.90943       72.64821       28.83811
H         41.65725       72.01184       28.12394
H         41.06812       72.83541       29.32434

Ca 1.70



