%chk=loop2.cluster61.chk
%nprocshared=48
%mem=10GB
%nosave
#b3lyp/svp scf=(tight,noincore) Test 
#IOP(5/87=12) Density=Current Pop=(MK,readradii) iop(6/33=2) iop(6/42=6)

loop2.cluster61 

   -2  1 
C         57.32834       48.43727       18.17769
C         58.39613       48.33351       17.13969
O         59.17125       49.25727       16.97488
H         56.35012       48.18566       17.71700
H         57.54669       47.69566       18.97712
H         57.28864       49.45288       18.61686
N         58.49096       47.18268       16.43030
C         59.52438       46.83817       15.45727
C         59.51351       47.69577       14.17904
O         59.10214       47.22255       13.12855
C         59.32171       45.33928       15.17486
C         60.41333       44.73733       14.40213
O         61.69182       44.93616       14.77562
O         60.13989       43.96417       13.50530
H         57.79366       46.45587       16.66086
H         60.52409       46.92967       15.93448
H         58.34238       45.14181       14.68570
H         59.32341       44.80372       16.14407
N         60.02317       48.96054       14.20099
C         60.10941       49.84448       13.04380
C         61.02110       49.28266       11.95934
O         60.57188       49.14154       10.83071
C         60.59459       51.22619       13.50916
H         60.37818       49.32225       15.08530
H         59.09101       49.99237       12.62262
H         61.59276       51.16402       13.99431
H         60.64083       51.93942       12.66105
H         59.87344       51.62509       14.25782
N         62.31684       48.93613       12.22574
C         63.18930       48.34401       11.19714
C         62.70225       46.98447       10.69413
O         63.20408       46.52794        9.67576
C         64.66177       48.21571       11.65704
C         64.79545       47.70934       13.05484
O         63.96006       46.76623       13.52096
O         65.52610       48.29820       13.83849
H         62.67711       49.09237       13.17847
H         63.19045       49.01913       10.31508
H         65.15148       49.21246       11.62147
H         65.23035       47.55562       10.96547
N         61.72744       46.28512       11.33316
C         61.21380       45.02667       10.82130
C         62.24464       43.91343       10.87985
O         62.45476       43.24612        9.87801
H         61.32286       46.65293       12.20286
H         60.80506       45.16365        9.79798
H         60.34596       44.73617       11.42442
N         62.92962       43.66708       12.03755
C         63.91675       42.59388       12.19946
C         63.59527       41.64225       13.36996
O         64.30981       40.66739       13.55350
C         65.31330       43.23231       12.31698
C         65.52080       44.14185       13.49959
N         66.52219       45.04829       13.47072
O         64.77754       44.09108       14.46579
H         62.78323       44.30725       12.82169
H         63.93608       41.96827       11.28069
H         65.43421       43.85621       11.40463
H         66.11698       42.46682       12.30996
H         67.13121       45.12884       12.64573
H         66.65650       45.70535       14.24590
N         62.49948       41.83948       14.15962
C         62.00792       40.89276       15.14848
C         62.62320       40.98300       16.52913
O         62.19312       40.23209       17.39304
H         61.89709       42.62293       13.95418
H         62.05687       39.86267       14.73926
H         60.93147       41.12304       15.31519
N         63.61405       41.86774       16.83000
C         64.18087       41.98830       18.17218
C         64.27108       43.43068       18.59667
O         64.79605       44.25122       17.85775
C         65.57002       41.33388       18.25860
C         65.43327       39.80408       18.32779
O         66.41230       41.76273       17.21393
H         63.99863       42.46123       16.08618
H         63.55108       41.46807       18.92699
H         66.04375       41.62332       19.22360
H         66.35738       41.10457       16.47212
H         64.92565       39.40428       17.42626
H         66.43243       39.33761       18.43426
H         64.82912       39.53018       19.22281
N         63.82310       43.79574       19.83076
C         63.94997       45.15325       20.33284
C         65.42192       45.51248       20.42713
O         66.19245       44.81292       21.07214
C         63.17904       45.35078       21.66861
C         61.67181       45.04067       21.41988
C         63.37764       46.79312       22.18122
C         60.76009       45.31366       22.61115
H         63.41323       43.07464       20.44151
H         63.45650       45.83699       19.60783
H         63.57310       44.65805       22.44577
H         61.55589       43.96776       21.16134
H         61.29113       45.63633       20.56148
H         64.44986       46.98976       22.39045
H         63.01518       47.53199       21.43489
H         62.84773       46.95196       23.14153
H         60.70244       46.40301       22.81265
H         59.73213       44.96902       22.37043
H         61.12428       44.77711       23.51072
N         65.86451       46.61076       19.76720
C         67.25794       47.04350       19.69920
C         67.37366       48.37443       20.38144
O         66.35829       48.91591       20.76668
C         67.76747       47.09892       18.23049
C         66.71169       46.76077       17.22290
O         65.60045       47.50069       17.09091
O         66.82326       45.74294       16.56578
H         65.15503       47.19849       19.30900
H         67.91213       46.35064       20.27120
H         68.55186       46.32003       18.11866
H         68.24140       48.07009       17.97421
N         68.57614       48.93331       20.66425
C         68.68504       50.12180       21.50218
C         68.00844       51.36456       20.88811
O         67.15048       51.91339       21.56127
C         70.14360       50.34329       21.93589
C         70.28585       51.48260       22.90927
C         70.93783       52.65991       22.51479
C         69.78163       51.37503       24.21846
C         71.08162       53.71840       23.41382
C         69.93970       52.43305       25.11919
C         70.58731       53.60442       24.71606
H         69.43423       48.43553       20.37238
H         68.14034       49.90140       22.45139
H         70.78789       50.50547       21.06194
H         70.52901       49.42018       22.42343
H         71.32447       52.75837       21.50808
H         69.28319       50.46957       24.54369
H         71.57930       54.62604       23.10022
H         69.56282       52.34454       26.13024
H         70.70748       54.42359       25.41246
N         68.29801       51.86512       19.63371
C         67.60416       53.03000       19.07588
C         66.08630       52.92577       19.06327
O         65.41813       53.93496       18.87374
C         68.08455       53.04810       17.61668
C         69.46833       52.44631       17.70851
C         69.28775       51.32559       18.73270
H         67.92956       53.91363       19.66700
H         67.48569       52.31565       17.02625
H         68.01792       54.03904       17.11715
H         69.91082       52.11647       16.74397
H         70.12441       53.22585       18.15705
H         68.89316       50.38679       18.29260
H         70.28008       51.16731       19.17986
N         65.47737       51.71769       19.19219
C         64.03797       51.53068       19.13993
C         63.47708       51.64913       20.54882
O         62.55199       52.41182       20.77865
C         63.77739       50.16077       18.49733
C         62.39390       50.02417       17.87092
C         62.40303       48.74175       17.11521
O         62.45337       48.74962       15.89761
O         62.50917       47.58324       17.78140
H         66.06813       50.87503       19.24013
H         63.58915       52.28608       18.45648
H         63.99825       49.33024       19.20500
H         64.48738       50.06831       17.64101
H         62.24134       50.86121       17.15223
H         61.57171       50.03892       18.61724
N         64.07226       50.96021       21.56084
C         63.71648       51.08236       22.95219
H         62.67760       50.74094       23.11902
H         64.40343       50.44358       23.55620
H         63.85599       52.13201       23.28256
H         64.85659       50.36311       21.34236
Ca        64.15206       46.54964       15.70466
O         61.55037       44.90014       17.62311
H         61.11992       45.68210       18.04644
H         60.86273       44.19434       17.69208

Ca 1.70



