%chk=loop2.cluster131.chk
%nprocshared=48
%mem=10GB
%nosave
#b3lyp/svp scf=(tight,noincore) Test 
#IOP(5/87=12) Density=Current Pop=(MK,readradii) iop(6/33=2) iop(6/42=6)

loop2.cluster131 

   -2  1 
C         82.21414       54.99812        8.00808
C         83.40551       55.15057        7.10958
O         83.95140       56.23925        6.99783
H         81.34887       54.61132        7.43246
H         82.46672       54.26595        8.80749
H         81.94347       55.96032        8.49003
N         83.89987       54.05472        6.47675
C         85.16454       54.05881        5.75566
C         85.15540       54.95473        4.49471
O         84.20690       54.91605        3.72435
C         85.59535       52.59473        5.45958
C         87.08955       52.53266        5.32364
O         87.84964       51.81011        6.14768
O         87.65041       53.30610        4.60253
H         83.41440       53.15534        6.62085
H         85.91726       54.45252        6.47227
H         85.04168       52.19997        4.57931
H         85.36345       51.94948        6.33402
N         86.22768       55.76608        4.23554
C         86.36218       56.71791        3.12669
C         87.52705       56.36632        2.16306
O         87.88140       57.18423        1.32530
C         86.60447       58.08445        3.78344
H         87.01081       55.72832        4.88896
H         85.43495       56.78395        2.51726
H         85.73199       58.34304        4.42278
H         87.50597       58.04442        4.43607
H         86.74279       58.88857        3.03301
N         88.13290       55.14554        2.22156
C         89.22128       54.66984        1.36431
C         89.11703       53.16713        0.96179
O         89.77161       52.79390       -0.00193
C         90.59994       54.97852        2.00591
C         90.77622       54.43847        3.40166
O         90.65400       53.25400        3.62502
O         91.10436       55.26473        4.41115
H         87.75830       54.51126        2.88160
H         89.17997       55.23735        0.40866
H         90.73768       56.07794        2.06826
H         91.40437       54.57075        1.35499
N         88.32354       52.25571        1.62083
C         88.16949       50.86251        1.20292
C         89.35108       49.94552        1.48239
O         89.29521       48.78712        1.09443
H         87.75738       52.54125        2.41540
H         87.89745       50.83743        0.12850
H         87.32354       50.41733        1.77378
N         90.43210       50.37459        2.18748
C         91.58411       49.53177        2.49505
C         91.28290       48.36456        3.45967
O         92.19993       47.60561        3.75010
C         92.76020       50.40843        3.00405
C         92.59036       51.03888        4.35113
N         93.64149       51.66813        4.92173
O         91.52980       50.96080        4.94593
H         90.45693       51.34493        2.48100
H         91.94968       49.10231        1.53760
H         92.96853       51.22444        2.27702
H         93.66368       49.76814        3.07049
H         94.53878       51.75130        4.42837
H         93.58193       52.02505        5.87566
N         90.03032       48.13435        3.97348
C         89.71866       46.98490        4.81850
C         90.01568       47.20088        6.29289
O         89.81961       46.28537        7.07329
H         89.24896       48.74866        3.71407
H         90.25551       46.08447        4.44474
H         88.63202       46.76781        4.74051
N         90.50452       48.39020        6.73421
C         90.88868       48.64609        8.12156
C         90.29188       49.92866        8.61799
O         89.95685       50.77880        7.83336
C         92.43437       48.80250        8.21024
C         93.08102       47.51525        8.67344
O         92.98494       49.16229        6.97209
H         90.65447       49.13670        6.05702
H         90.52463       47.85099        8.80455
H         92.74072       49.55646        8.97642
H         92.79474       50.12436        6.86884
H         92.76633       46.66547        8.03586
H         94.18452       47.63034        8.63876
H         92.77685       47.33310        9.72716
N         90.22877       50.16254        9.95460
C         89.93397       51.48669       10.47774
C         91.19786       52.30570       10.37504
O         92.22680       51.87249       10.87784
C         89.48589       51.43680       11.96620
C         88.30391       50.45648       12.14847
C         89.14281       52.86708       12.44521
C         87.86607       50.32817       13.60656
H         90.49457       49.41279       10.60424
H         89.09002       51.94464        9.91162
H         90.31954       51.05105       12.59526
H         88.64635       49.44671       11.84379
H         87.43490       50.73053       11.51192
H         88.41777       53.35999       11.76087
H         88.73619       52.88754       13.47282
H         90.06708       53.47334       12.48154
H         87.19296       49.45347       13.71450
H         88.75076       50.17525       14.26241
H         87.31336       51.23161       13.93404
N         91.16873       53.54801        9.82341
C         92.30458       54.45093        9.91296
C         92.01044       55.48157       10.98277
O         90.89585       55.50884       11.47774
C         92.57469       55.11603        8.55705
C         92.94973       54.13244        7.48715
O         92.04248       53.35830        6.84816
O         94.11541       54.07330        7.13232
H         90.27553       53.91559        9.46827
H         93.21763       53.90700       10.24856
H         93.44422       55.79274        8.70377
H         91.71336       55.72748        8.21540
N         92.97701       56.31341       11.46348
C         92.70409       57.25644       12.54369
C         91.72628       58.36426       12.10994
O         90.81374       58.63675       12.86952
C         93.99833       57.79308       13.18489
C         93.69418       58.60702       14.42126
C         93.93209       59.98888       14.42811
C         93.16001       57.99262       15.57196
C         93.62433       60.75003       15.55901
C         92.86342       58.75758       16.70431
C         93.08974       60.13613       16.69529
H         93.94160       56.21849       11.10632
H         92.21354       56.68181       13.36469
H         94.56882       58.38975       12.45335
H         94.64821       56.94099       13.48663
H         94.33946       60.47607       13.55169
H         92.97869       56.92462       15.59355
H         93.79733       61.81758       15.55213
H         92.45483       58.28255       17.58775
H         92.85130       60.72902       17.56864
N         91.81207       59.02707       10.90440
C         90.79282       59.98119       10.46018
C         89.37697       59.40925       10.32238
O         88.44511       60.18268       10.13747
C         91.31318       60.42443        9.08623
C         92.81499       60.28832        9.26017
C         92.92909       58.95371        9.99851
H         90.79761       60.81656       11.19392
H         91.02648       59.66799        8.31852
H         90.95040       61.42123        8.75498
H         93.41422       60.35484        8.32842
H         93.14154       61.10074        9.95170
H         92.79158       58.08918        9.31570
H         93.91674       58.92978       10.49195
N         89.14101       58.06888       10.43010
C         87.80947       57.46288       10.45086
C         87.44459       57.03011       11.86779
O         86.26810       56.86806       12.15298
C         87.79158       56.21814        9.55285
C         88.16466       56.53774        8.10358
C         88.40998       55.28743        7.32914
O         88.86807       55.36080        6.20272
O         88.17869       54.08105        7.88450
H         89.94566       57.44431       10.53076
H         87.04381       58.19517       10.11223
H         86.80193       55.70803        9.58315
H         88.54868       55.51145        9.96454
H         89.11492       57.10804        8.08172
H         87.36572       57.13836        7.61661
N         88.41415       56.82466       12.80600
C         88.16126       56.47651       14.18260
H         87.08360       56.36051       14.40240
H         88.69453       55.53140       14.42041
H         88.58078       57.28128       14.82464
H         89.38858       56.91447       12.54557
Ca        89.90827       52.77960        6.37951

Ca 1.70



