%chk=loop2.cluster178.chk
%nprocshared=48
%mem=10GB
%nosave
#b3lyp/svp scf=(tight,noincore) Test 
#IOP(5/87=12) Density=Current Pop=(MK,readradii) iop(6/33=2) iop(6/42=6)

loop2.cluster178 

   -2  1 
C         51.73390      -12.15790       27.28754
C         51.42330      -13.20684       28.32010
O         50.56875      -12.98880       29.16392
H         52.65405      -12.41973       26.71999
H         50.89507      -12.08384       26.56400
H         51.90019      -11.17534       27.77276
N         52.07457      -14.39899       28.27557
C         51.84620      -15.51129       29.19800
C         52.30948      -15.17155       30.60760
O         51.58850      -15.44012       31.55654
C         52.63218      -16.72922       28.66347
C         52.59130      -17.92425       29.57055
O         53.72997      -18.36667       30.13794
O         51.53881      -18.50070       29.79151
H         52.75847      -14.53530       27.51495
H         50.77067      -15.79881       29.20973
H         53.69376      -16.43479       28.52851
H         52.22552      -17.01770       27.66688
N         53.52845      -14.59662       30.80499
C         54.11841      -14.30753       32.10871
C         53.23347      -13.45923       33.01784
O         53.13574      -13.75217       34.20235
C         54.58101      -15.60410       32.79218
H         54.08344      -14.34281       29.97367
H         55.03715      -13.71244       31.91121
H         55.14778      -15.36823       33.71938
H         53.71510      -16.24743       33.05511
H         55.25553      -16.16985       32.11475
N         52.57176      -12.36965       32.52765
C         51.82431      -11.43912       33.37901
C         50.68217      -12.07877       34.17806
O         50.16680      -11.44258       35.08657
C         52.80169      -10.63501       34.27102
C         53.77286       -9.84504       33.43282
O         55.09932       -9.99047       33.60264
O         53.35941       -9.05487       32.60415
H         52.62366      -12.16806       31.51849
H         51.32943      -10.68465       32.72907
H         53.36288      -11.29554       34.96474
H         52.22366       -9.90484       34.87649
N         50.18025      -13.29957       33.84345
C         49.04741      -13.91643       34.51566
C         47.76157      -13.13903       34.32412
O         47.49129      -12.70530       33.21764
H         50.59584      -13.81483       33.06032
H         49.26598      -14.09323       35.59095
H         48.88480      -14.91078       34.04637
N         46.88462      -12.99806       35.36349
C         45.55000      -12.38741       35.27494
C         44.65335      -13.13855       34.29316
O         43.88298      -12.52040       33.56935
C         45.62263      -10.89004       34.92002
C         46.65195      -10.18078       35.75134
N         47.79586       -9.74469       35.17538
O         46.47375      -10.02912       36.95026
H         47.15522      -13.39147       36.27759
H         45.09420      -12.48445       36.28596
H         44.62820      -10.40501       35.04300
H         45.90056      -10.79937       33.84940
H         47.97233       -9.91058       34.17277
H         48.52308       -9.28258       35.73782
N         44.74191      -14.49268       34.19304
C         43.99447      -15.27503       33.21938
C         44.47725      -15.13217       31.78407
O         44.06860      -15.94881       30.96747
H         45.37386      -15.00093       34.82857
H         42.90359      -15.07535       33.29229
H         44.15380      -16.34321       33.48051
N         45.36425      -14.16547       31.39295
C         45.89205      -14.07882       30.03804
C         45.61086      -12.71566       29.43124
O         45.33453      -11.76896       30.16228
C         47.42215      -14.31014       30.02717
C         47.85548      -15.51618       30.87302
O         47.81856      -14.49572       28.69289
H         45.68966      -13.47550       32.06675
H         45.41767      -14.85943       29.40563
H         47.92162      -13.41029       30.46183
H         48.80344      -14.46815       28.66358
H         47.40425      -16.45374       30.49255
H         48.96136      -15.60631       30.85189
H         47.56592      -15.37307       31.93622
N         45.69791      -12.53519       28.08395
C         45.50854      -11.22831       27.45987
C         46.56501      -10.23039       27.88784
O         47.60599      -10.62116       28.40203
C         45.48239      -11.29208       25.90043
C         46.73725      -12.00162       25.30607
C         44.18316      -11.95224       25.42011
C         46.83682      -11.89056       23.78627
H         45.86931      -13.36355       27.49810
H         44.53713      -10.82084       27.81900
H         45.45478      -10.24130       25.53446
H         46.72942      -13.08241       25.55815
H         47.66511      -11.56206       25.73080
H         43.30891      -11.47775       25.91436
H         44.05167      -11.79952       24.33002
H         44.18069      -13.03864       25.64458
H         45.94984      -12.32772       23.28635
H         46.94514      -10.82633       23.49209
H         47.72782      -12.45334       23.43476
N         46.33504       -8.89760       27.68880
C         47.30373       -7.86744       28.01914
C         46.73987       -6.97800       29.12472
O         46.68049       -5.76013       28.98786
C         47.65487       -7.10937       26.72173
C         48.91365       -6.29888       26.80058
O         49.71509       -6.38926       27.86975
O         49.25374       -5.61145       25.85243
H         45.43549       -8.60055       27.28448
H         48.22763       -8.34903       28.41208
H         46.79701       -6.46371       26.44727
H         47.81638       -7.83935       25.89976
N         46.32259       -7.55595       30.27985
C         45.93716       -6.84663       31.49397
C         44.75627       -5.85670       31.41317
O         44.93340       -4.77178       31.93551
C         45.68574       -7.89471       32.60886
C         45.14579       -7.36681       33.92143
C         43.85212       -7.74351       34.31783
C         45.90646       -6.53577       34.76500
C         43.31783       -7.29638       35.52435
C         45.36909       -6.09974       35.98672
C         44.07521       -6.47834       36.36201
H         46.35747       -8.58999       30.32104
H         46.81245       -6.24979       31.83872
H         46.62853       -8.44977       32.80232
H         44.96342       -8.63679       32.21848
H         43.25654       -8.38801       33.68573
H         46.91111       -6.24094       34.48967
H         42.31653       -7.59190       35.80994
H         45.95367       -5.47142       36.64672
H         43.65869       -6.14235       37.30321
N         43.50057       -6.16554       30.92778
C         43.12925       -7.33760       30.15776
C         43.10956       -7.04723       28.63747
O         42.91791       -7.95841       27.85402
C         41.63096       -7.53197       30.54296
C         41.38945       -6.58213       31.71753
C         42.33974       -5.43978       31.42171
H         43.72640       -8.22083       30.45649
H         40.96951       -7.14230       29.73304
H         41.32930       -8.58243       30.73799
H         40.32816       -6.27347       31.85046
H         41.73537       -7.07735       32.64095
H         41.90806       -4.80581       30.62129
H         42.52374       -4.81527       32.32315
N         43.04217       -5.74329       28.21861
C         42.56650       -5.29276       26.90606
C         43.41765       -5.74127       25.73912
O         44.59754       -5.42751       25.68814
C         42.47833       -3.74922       26.97310
C         42.04267       -3.04137       25.69177
C         41.96773       -1.56404       25.96216
O         43.07748       -0.88442       26.31444
O         40.89885       -0.98019       25.89085
H         43.20019       -5.00929       28.91146
H         41.53090       -5.67382       26.75461
H         43.47090       -3.34871       27.27586
H         41.74120       -3.49736       27.77167
H         41.05065       -3.42666       25.37449
H         42.77749       -3.21839       24.87689
N         42.84530       -6.45993       24.72807
C         43.57028       -6.85872       23.54161
H         44.54579       -7.31251       23.81079
H         42.97417       -7.61500       22.98620
H         43.71926       -5.98395       22.87136
H         41.85105       -6.72593       24.79539
Ca        51.86582       -6.03232       29.39104
O         52.19667       -3.72664       30.88149
H         51.97371       -3.76112       31.84462
H         51.83732       -2.86075       30.56631
O         51.96472       -8.78495       29.51320
H         52.60680       -9.01388       30.22864
H         51.17844       -9.35947       29.68372
O         53.13687       -7.13442       27.17823
H         53.63140       -7.99080       27.14499
H         52.86925       -6.95221       26.24366
O         49.50987       -5.23241       30.68745
H         48.93342       -5.21801       31.48853
H         48.90322       -5.48419       29.95417
O         54.52581       -5.75458       29.78126
H         55.13053       -5.03447       30.08551
H         54.97864       -6.16317       29.00200
O         51.52791       -6.40683       32.20274
H         51.97860       -7.23464       31.91156
H         50.80623       -6.71436       32.80416
O         51.98450       -3.72472       27.78144
H         52.72288       -3.07069       27.86269
H         51.80949       -3.79474       26.81018

Ca 1.70



