%chk=loop1.cluster124.chk
%nprocshared=48
%mem=10GB
%nosave
#b3lyp/svp scf=(tight,noincore) Test 
#IOP(5/87=12) Density=Current Pop=(MK,readradii) iop(6/33=2) iop(6/42=6)

loop1.cluster124 

   0  1 
C         65.37386       37.61730       47.75883
C         64.32974       37.33003       46.72180
O         63.15731       37.56444       46.96612
H         66.16773       38.27627       47.35231
H         64.92301       38.08931       48.65749
H         65.82532       36.64829       48.06151
N         64.70544       36.79877       45.52539
C         63.74317       36.31318       44.53626
C         64.16602       34.89000       44.13465
O         65.24806       34.45190       44.48800
C         63.70814       37.31936       43.36050
C         62.62448       37.20539       42.30839
O         61.59768       36.34737       42.41516
O         62.63992       37.98287       41.37179
H         65.71157       36.70771       45.32234
H         62.73102       36.27513       44.99242
H         64.70215       37.30667       42.87357
H         63.55681       38.33387       43.78901
N         63.32393       34.10884       43.41264
C         63.60333       32.72861       43.04403
C         64.94390       32.48029       42.35760
O         65.68209       31.65053       42.87438
C         62.41933       32.19302       42.20182
C         62.53722       30.72809       41.75185
C         62.80432       29.78747       42.93222
C         62.69318       28.31371       42.54450
N         62.93958       27.47207       43.71548
H         62.40181       34.46665       43.18765
H         63.62531       32.14792       43.99309
H         62.27475       32.82056       41.29743
H         61.49879       32.29049       42.82068
H         63.34311       30.61747       40.99364
H         61.57114       30.46418       41.26804
H         62.06880       29.99561       43.73703
H         63.82726       29.96671       43.32369
H         63.42764       28.06855       41.74494
H         61.66897       28.11418       42.15859
H         62.24333       27.69257       44.46513
H         62.84243       26.46680       43.44904
H         63.90611       27.63827       44.08029
N         65.36736       33.06012       41.19919
C         64.74859       34.17562       40.50243
C         65.81754       35.26950       40.43387
O         66.98999       34.94146       40.32724
C         64.33672       33.71927       39.08565
C         63.42306       34.73707       38.48982
O         63.77608       35.45947       37.56922
O         62.20857       34.85929       39.05368
H         66.25002       32.70693       40.80211
H         63.85208       34.54261       41.04208
H         63.73940       32.78243       39.14735
H         65.23731       33.52360       38.46855
N         65.49933       36.58812       40.47647
C         66.54959       37.59718       40.51675
C         66.02450       38.94199       40.12683
O         66.16962       39.90247       40.87238
H         64.51665       36.87059       40.45174
H         67.32628       37.35581       39.75912
H         67.03210       37.60383       41.51992
N         65.46649       39.08336       38.89760
C         65.05684       40.35583       38.34031
C         66.11707       40.79469       37.34484
O         66.42055       40.01581       36.45044
C         63.72347       40.19523       37.60770
C         62.61376       39.91062       38.55788
O         62.31509       40.79467       39.52880
O         61.95979       38.89368       38.43706
H         65.42060       38.25176       38.28670
H         64.89172       41.08994       39.14279
H         63.79772       39.39231       36.84097
H         63.48185       41.13103       37.08598
N         66.72942       42.01666       37.38016
C         66.36566       43.10625       38.27430
C         65.39577       44.06429       37.61302
O         64.97543       45.00874       38.26762
H         67.39362       42.23849       36.62248
H         67.28765       43.66579       38.54024
H         65.98495       42.76540       39.24889
N         65.03368       43.91511       36.29750
C         64.23396       44.88102       35.55924
C         64.97027       46.19580       35.56067
O         64.64788       47.04512       36.37208
C         62.75510       44.97594       36.02906
C         62.08722       43.60397       36.01428
O         62.04214       45.79733       35.14014
H         65.40557       43.12645       35.75310
H         64.17483       44.54608       34.50055
H         62.66282       45.36744       37.06927
H         62.17749       46.73330       35.43197
H         62.52502       42.98309       36.81020
H         61.00093       43.69633       36.22265
H         62.22031       43.10957       35.02674
N         66.07105       46.35646       34.75673
C         66.95381       47.52867       34.75099
C         66.35051       48.75305       34.07684
O         67.02274       49.30702       33.21507
C         67.55206       47.81343       36.15920
C         68.45292       46.61973       36.56825
C         68.37048       49.12455       36.18908
C         68.72540       46.57818       38.06623
H         66.33961       45.56580       34.15243
H         67.83215       47.27840       34.10858
H         66.72679       47.93720       36.88276
H         69.40759       46.66714       35.99457
H         67.96947       45.65093       36.31986
H         67.73545       49.99466       35.91968
H         68.76289       49.33005       37.20405
H         69.22392       49.07670       35.47860
H         67.76662       46.39620       38.59774
H         69.41911       45.74131       38.28887
H         69.17623       47.51830       38.43620
N         65.12460       49.25903       34.40534
C         64.63011       50.50014       33.84347
C         64.22400       51.46205       34.95099
O         64.14875       51.08851       36.11426
C         63.48091       50.24589       32.83630
C         62.18930       49.71532       33.47245
O         63.90817       49.38775       31.80544
H         64.51234       48.77686       35.05541
H         65.44426       50.99873       33.27276
H         63.22921       51.22098       32.36792
H         64.09780       48.49777       32.20589
H         61.83446       50.40490       34.26703
H         61.39845       49.65555       32.69480
H         62.34039       48.70683       33.90734
N         64.00204       52.75656       34.62839
C         63.68130       53.81228       35.58548
C         62.27425       53.68350       36.15269
O         61.32395       53.56580       35.39176
C         63.93060       55.16913       34.86058
C         63.31951       56.37013       35.57145
O         65.31436       55.40156       34.67065
H         64.15060       53.01884       33.64143
H         64.38654       53.77988       36.44553
H         63.45137       55.13745       33.85773
H         65.86008       54.67656       35.07930
H         62.21093       56.28846       35.54595
H         63.66997       56.44074       36.61990
H         63.59477       57.29245       35.01814
N         62.08498       53.74268       37.51362
C         60.78479       53.62776       38.16949
C         60.18976       52.29700       37.80041
O         59.25140       52.23464       37.01404
C         59.83801       54.80398       37.88073
C         60.39169       56.16206       38.35566
C         59.44858       57.30491       37.94678
C         58.13020       57.32892       38.74189
N         57.19544       58.28826       38.15636
H         62.90788       53.85650       38.12283
H         60.92643       53.64272       39.27484
H         58.89196       54.59606       38.42477
H         59.61728       54.85196       36.79564
H         61.36545       56.33271       37.85384
H         60.56857       56.17531       39.45592
H         59.24180       57.20123       36.85975
H         59.95759       58.28087       38.10345
H         58.35046       57.60539       39.79797
H         57.63458       56.33791       38.74622
H         56.33940       58.34424       38.75381
H         57.63160       59.23530       38.08441
H         56.91454       57.95681       37.20378
N         60.70276       51.17394       38.37089
C         60.20041       49.84835       38.06677
C         61.21796       48.71151       37.83459
O         60.77993       47.75760       37.20905
C         59.15477       49.46159       39.12838
C         58.02235       48.58813       38.56875
C         56.96433       48.39259       39.61486
O         55.88343       48.95013       39.50358
O         57.20969       47.61999       40.68925
H         61.30556       51.32909       39.16728
H         59.66220       49.94487       37.09494
H         58.65091       50.39731       39.45793
H         59.65476       49.01683       40.01684
H         58.37288       47.60318       38.19606
H         57.56919       49.14010       37.71412
N         62.52073       48.60658       38.28759
C         63.34763       49.48675       39.10129
H         64.28211       49.72039       38.55077
H         62.96360       50.43234       39.42687
H         63.62410       48.95429       40.03548
H         62.99845       47.72859       38.04266
Ca        60.91237       36.64637       39.33123
O         59.84470       39.12069       40.75924
H         60.79056       39.39331       40.78262
H         59.37611       39.87267       41.19565
O         58.42341       36.64483       41.30580
H         57.87914       37.46825       41.38211
H         58.18038       36.11220       42.10365
O         59.01305       37.19205       37.54824
H         58.40828       36.45307       37.29045
H         58.64979       37.99983       37.11028
O         59.73337       34.08371       40.19677
H         60.03901       33.31237       39.65654
H         59.08569       33.70196       40.83920

Ca 1.70



