%chk=loop4.cluster111.chk
%nprocshared=48
%mem=10GB
%nosave
#b3lyp/svp scf=(tight,noincore) Test 
#IOP(5/87=12) Density=Current Pop=(MK,readradii) iop(6/33=2) iop(6/42=6)

loop4.cluster111 

   -3  1 
C         75.53081       51.81958       36.74971
C         75.11619       50.61448       37.53275
O         74.06907       50.62866       38.16393
H         76.51403       51.64670       36.26009
H         74.78246       52.02192       35.95662
H         75.62674       52.69153       37.42530
N         75.89235       49.50380       37.49395
C         75.54101       48.26644       38.15883
C         75.79446       48.36868       39.66834
O         76.93459       48.35669       40.10683
C         76.32631       47.15794       37.46116
C         76.15787       45.82519       38.05473
O         75.00729       45.47411       38.65595
O         77.13151       45.10771       38.12834
H         76.72954       49.51953       36.89224
H         74.46644       48.05094       37.95966
H         77.41021       47.40298       37.48393
H         76.01552       47.10657       36.39353
N         74.73477       48.55591       40.49911
C         74.80149       48.78689       41.94894
C         75.04226       47.52329       42.75839
O         75.55271       47.62211       43.86800
C         73.46825       49.50867       42.35280
C         73.63988       51.00804       42.00978
C         72.98683       49.26418       43.79229
C         72.33177       51.78334       41.96410
H         73.82450       48.65955       40.04639
H         75.65636       49.46517       42.17770
H         72.64052       49.08769       41.74182
H         74.08448       51.10044       40.99443
H         74.34508       51.47734       42.73232
H         73.75568       49.53645       44.53924
H         72.04957       49.82064       43.99431
H         72.72461       48.18653       43.90395
H         71.83495       51.80972       42.95235
H         72.54297       52.82550       41.64474
H         71.65930       51.31854       41.21509
N         74.68382       46.30819       42.27651
C         74.86018       45.06055       43.01973
C         76.05220       44.26775       42.50850
O         76.49744       43.36128       43.19804
C         73.59212       44.17335       42.93877
C         73.03356       44.06172       41.53823
O         72.33844       45.08748       41.00430
O         73.15552       43.02761       40.90665
H         74.31903       46.27034       41.31987
H         75.08311       45.27442       44.09239
H         72.77968       44.56136       43.58513
H         73.85576       43.15870       43.31436
N         76.63927       44.57096       41.32296
C         77.78475       43.85202       40.80223
C         77.42590       42.49778       40.20480
O         78.11890       41.53225       40.48958
H         76.28694       45.36013       40.77296
H         78.58817       43.78955       41.56489
H         78.22274       44.46657       40.00168
N         76.39947       42.37069       39.30485
C         76.08282       41.11574       38.59908
C         76.38638       41.18551       37.09047
O         76.30597       40.15969       36.43103
C         74.60950       40.64827       38.83473
C         73.55222       41.57386       38.30324
O         72.39386       41.20668       38.18624
O         73.88337       42.82752       38.01440
H         75.84862       43.20852       39.10245
H         76.73638       40.31012       38.99100
H         74.40792       40.51936       39.91781
H         74.47659       39.66313       38.34038
N         76.71831       42.36111       36.47882
C         77.02706       42.48875       35.06015
C         75.90686       43.15635       34.28487
O         76.04285       43.32240       33.08131
H         76.70521       43.21677       37.02005
H         77.21975       41.49840       34.59961
H         77.95292       43.09661       34.95600
N         74.74838       43.52152       34.89856
C         73.59570       44.05711       34.20014
C         73.22847       45.47362       34.74540
O         73.53855       45.82039       36.07635
C         72.46886       42.99498       34.26008
C         72.70701       41.76997       33.33499
C         72.66342       42.10107       31.85475
N         73.56626       41.56645       30.99642
O         71.76666       42.80833       31.41912
H         74.64192       43.35990       35.90218
H         73.79246       44.23426       33.12583
H         71.49740       43.43427       33.95235
H         72.36849       42.62233       35.30250
H         71.86849       41.06419       33.51164
H         73.64824       41.23584       33.59179
H         74.29551       40.92004       31.33010
H         73.50235       41.76274       29.98495
N         71.92491       45.97414       34.28837
C         71.48004       47.24040       34.90049
C         69.98712       47.28210       34.78222
O         69.46398       47.39197       33.67963
C         72.08347       48.53951       34.28177
C         71.64515       49.75574       35.12223
C         73.61077       48.52284       34.20911
H         71.87439       45.99730       33.24476
H         71.72868       47.22669       35.98267
H         71.70862       48.66682       33.24111
H         72.04522       50.70361       34.70950
H         70.54305       49.84872       35.14259
H         72.01139       49.64476       36.16542
H         73.97389       49.48449       33.78639
H         74.05322       48.38435       35.21690
H         73.95343       47.71650       33.52959
N         69.22541       47.16586       35.89571
C         67.78422       47.21340       35.84494
C         67.32695       48.64432       35.64917
O         68.14803       49.54888       35.69592
C         67.21894       46.59322       37.14999
C         65.73221       46.37464       37.09541
N         65.18640       45.63676       36.09995
O         65.01218       46.86762       37.94888
H         69.69013       46.99946       36.79165
H         67.46127       46.58697       34.98887
H         67.49661       47.22305       38.02786
H         67.68315       45.59340       37.29462
H         65.77979       45.20875       35.37482
H         64.16678       45.51059       36.04385
N         66.02077       48.93369       35.44196
C         65.47884       50.28471       35.43374
C         65.67719       50.95585       36.79054
O         66.03795       52.11685       36.84896
C         63.96845       50.20240       35.17449
C         63.35040       51.56981       35.15950
C         63.67211       52.46953       34.13422
C         62.46704       51.96026       36.17789
C         63.10262       53.74185       34.11510
C         61.90321       53.23709       36.16137
C         62.21377       54.12950       35.12327
O         61.66159       55.35770       35.08528
H         65.36854       48.14541       35.31362
H         65.96126       50.89113       34.63152
H         63.51234       49.57876       35.97636
H         63.76694       49.69816       34.20485
H         64.35809       52.17833       33.34821
H         62.22624       51.28069       36.98754
H         63.35043       54.42496       33.31370
H         61.22609       53.53170       36.95286
H         61.02343       55.64721       35.75216
N         65.40569       50.25124       37.92394
C         65.58667       50.79210       39.27247
C         67.03563       51.18983       39.53978
O         67.27674       51.99356       40.43474
C         65.04575       49.73723       40.26520
C         65.27530       50.03885       41.74689
C         64.55051       49.04589       42.61759
O         63.39791       48.72829       42.36588
O         65.13110       48.59275       43.74431
H         65.07346       49.28850       37.82117
H         64.96961       51.71406       39.35613
H         65.49145       48.74195       40.04976
H         63.95010       49.67636       40.06603
H         64.90474       51.05537       41.98319
H         66.36450       49.98580       41.96912
N         68.04422       50.72091       38.75939
C         69.42776       51.16401       38.85399
C         69.69164       52.30637       37.87377
O         70.52762       53.14961       38.15844
C         70.34914       49.97004       38.55023
C         70.19257       48.85825       39.59467
C         70.88116       47.60906       39.14475
O         72.18662       47.60444       38.84952
O         70.23983       46.58798       39.01022
H         67.81664       50.02507       38.03868
H         69.65674       51.53581       39.87770
H         71.41335       50.28803       38.51824
H         70.07206       49.56975       37.55202
H         69.11796       48.61338       39.73669
H         70.59866       49.19413       40.57015
N         68.99422       52.40646       36.70581
C         69.18265       53.49014       35.76669
H         70.22208       53.48515       35.38180
H         68.48705       53.36137       34.90637
H         68.95436       54.46239       36.25133
H         68.30041       51.70128       36.47199
Ca        72.58521       44.56025       37.66818
O         69.95389       43.62462       39.62093
H         69.12705       43.18170       39.30971
H         69.65101       44.53808       39.83227
O         70.44098       43.87096       36.35209
H         70.27225       42.89776       36.30729
H         69.93985       44.18284       37.14352

Ca 1.70



