%chk=loop3.cluster178.chk
%nprocshared=48
%mem=10GB
%nosave
#b3lyp/svp scf=(tight,noincore) Test 
#IOP(5/87=12) Density=Current Pop=(MK,readradii) iop(6/33=2) iop(6/42=6)

loop3.cluster178 

   0  1 
C         17.63551      -20.84446       36.43540
C         18.21133      -22.21066       36.66992
O         18.76817      -22.44912       37.73247
H         16.78122      -20.69242       37.12843
H         18.40058      -20.06288       36.62278
H         17.26444      -20.73592       35.39443
N         18.06263      -23.18733       35.73115
C         18.51907      -24.55391       35.95401
C         20.04480      -24.58768       36.01435
O         20.69034      -24.07789       35.10736
C         17.97036      -25.49098       34.85158
C         17.78506      -26.92475       35.36333
O         18.89857      -27.45140       36.01661
O         17.45573      -27.80323       34.32700
H         17.54050      -22.96708       34.86891
H         18.06388      -24.89800       36.91157
H         18.57486      -25.41421       33.92311
H         16.93142      -25.18595       34.59524
N         20.68565      -25.15083       37.07835
C         22.14385      -25.10634       37.27622
C         22.98618      -25.77527       36.19092
O         24.19692      -25.61661       36.20206
C         22.47497      -25.72411       38.64973
C         22.17386      -27.24680       38.71935
C         22.07464      -27.76736       40.16411
C         20.79152      -27.25766       40.85859
N         20.68613      -27.74806       42.23023
H         20.09725      -25.57335       37.81323
H         22.42862      -24.03079       37.29550
H         21.85760      -25.15616       39.36788
H         23.53731      -25.55578       38.92985
H         22.98373      -27.78450       38.17684
H         21.22082      -27.50693       38.21320
H         22.98256      -27.47107       40.73241
H         22.02681      -28.87849       40.13882
H         19.90020      -27.59521       40.28107
H         20.77292      -26.15200       40.89165
H         21.54219      -27.48735       42.77092
H         19.85574      -27.29987       42.68268
H         20.55691      -28.78518       42.23630
N         22.39981      -26.55280       35.24405
C         23.13373      -27.21527       34.16272
C         22.67341      -26.74722       32.78516
O         23.39112      -26.99030       31.82012
C         22.99596      -28.75923       34.27819
C         21.58502      -29.28860       34.31720
O         20.63594      -28.53380       34.28716
O         21.36518      -30.61221       34.40546
H         21.39383      -26.68730       35.31007
H         24.21844      -26.97562       34.23442
H         23.48520      -29.09489       35.21452
H         23.51193      -29.23870       33.41800
N         21.48556      -26.09670       32.59553
C         20.99173      -25.73860       31.27685
C         20.53626      -26.94951       30.47339
O         20.32622      -26.82710       29.27882
H         20.88143      -25.88337       33.39642
H         21.76854      -25.15001       30.74363
H         20.09260      -25.09528       31.38560
N         20.29762      -28.13563       31.10151
C         19.80588      -29.34026       30.45772
C         18.50586      -29.74995       31.15012
O         18.52113      -30.03795       32.33818
C         20.89126      -30.42595       30.62613
C         20.56393      -31.77625       30.04588
N         21.34472      -32.83835       30.34845
O         19.60291      -31.92167       29.30825
H         20.45094      -28.19142       32.09966
H         19.62521      -29.16724       29.37684
H         21.07685      -30.55725       31.71316
H         21.84017      -30.07892       30.16242
H         22.15712      -32.72702       30.97310
H         21.12010      -33.77416       29.98057
N         17.33170      -29.76885       30.45464
C         16.05569      -30.12236       31.06641
C         15.90612      -31.59502       31.38016
O         14.85456      -31.97562       31.87348
H         17.32980      -29.47787       29.46888
H         15.24191      -29.87715       30.35264
H         15.89776      -29.51267       31.98426
N         16.88833      -32.49535       31.09680
C         16.78047      -33.90789       31.41118
C         16.68796      -34.08440       32.90960
O         17.53698      -33.58435       33.62928
C         17.96559      -34.70554       30.80810
C         17.86837      -36.15800       31.21287
C         18.35690      -36.55653       32.46451
C         17.23222      -37.10070       30.39114
C         18.17409      -37.86265       32.91560
C         17.05214      -38.41438       30.84280
C         17.50884      -38.79251       32.11605
O         17.30520      -40.04109       32.58167
H         17.74311      -32.17190       30.64659
H         15.86551      -34.31985       30.92944
H         18.95156      -34.29634       31.11539
H         17.89163      -34.60930       29.70190
H         18.86205      -35.84012       33.09616
H         16.85076      -36.81218       29.42010
H         18.53351      -38.14582       33.89530
H         16.54178      -39.13144       30.21365
H         16.81238      -40.69969       32.07287
N         15.67656      -34.83124       33.42941
C         15.46948      -35.09185       34.84704
C         16.58485      -35.93850       35.44818
O         17.75692      -35.68096       35.22773
C         15.00418      -33.83755       35.65929
C         14.54811      -34.24667       37.08167
C         13.78823      -33.21868       34.94921
C         15.68984      -34.27812       38.09578
H         15.00721      -35.26206       32.77383
H         14.57679      -35.75657       34.87361
H         15.79012      -33.05807       35.72621
H         14.02959      -35.22673       37.01112
H         13.79905      -33.54043       37.50101
H         12.96101      -33.95529       34.85826
H         13.42099      -32.33346       35.50991
H         14.06180      -32.87643       33.93923
H         15.87374      -33.24949       38.46936
H         15.43193      -34.92743       38.95714
H         16.62515      -34.63570       37.65309
N         16.24575      -36.97604       36.26102
C         17.17364      -37.95234       36.82295
C         16.55636      -39.38018       36.84849
O         17.25705      -40.30376       37.23602
C         17.54121      -37.52979       38.26925
O         18.34864      -36.37972       38.37339
H         15.26828      -37.01625       36.55591
H         18.10945      -37.99827       36.22102
H         18.11110      -38.34981       38.74974
H         16.60334      -37.34897       38.83214
H         18.40708      -35.91528       37.50607
N         15.24409      -39.62181       36.50552
C         14.56826      -40.91683       36.57179
C         14.77234      -41.69904       37.87495
O         15.19538      -42.84540       37.80192
C         14.89554      -41.73157       35.31645
H         14.64076      -38.85766       36.19903
H         13.47352      -40.72324       36.50300
H         14.57688      -41.16018       34.41727
H         15.98084      -41.94573       35.24370
H         14.32676      -42.68707       35.32482
N         14.46328      -41.20618       39.11369
C         13.99982      -39.85100       39.39014
C         12.65774      -39.87729       40.11135
O         12.31566      -40.91844       40.65234
C         15.04539      -39.21888       40.32030
H         14.60121      -41.83196       39.92378
H         13.91419      -39.28084       38.45898
H         14.83931      -38.15793       40.53186
H         15.08140      -39.77050       41.28767
H         16.05346      -39.29727       39.86936
N         11.85441      -38.77799       40.25962
C         12.01081      -37.48781       39.58725
C         10.74341      -37.10394       38.80474
O         10.86476      -36.38449       37.82229
C         12.37754      -36.41276       40.62815
C         12.52394      -35.01531       40.02038
C         13.07506      -34.04208       41.01795
O         14.20878      -34.18153       41.45020
O         12.32570      -33.00353       41.43073
H         11.06171      -38.88200       40.90661
H         12.84046      -37.50982       38.85282
H         13.34348      -36.70151       41.08608
H         11.61482      -36.37454       41.43241
H         11.53482      -34.66122       39.66426
H         13.20169      -35.06015       39.15879
N          9.49820      -37.53540       39.18145
C          8.28615      -37.17805       38.47071
H          7.56916      -36.71498       39.18223
H          8.46316      -36.46526       37.63950
H          7.82505      -38.09998       38.05844
H          9.37842      -38.14237       39.99772
Ca        18.49895      -29.57763       35.29746
O         19.02751      -32.39980       36.21983
H         19.88291      -32.66380       36.63980
H         18.80199      -33.16967       35.64565
O         16.10417      -30.68297       34.68442
H         16.37181      -31.46290       34.14137
H         15.13589      -30.58065       34.52175
O         20.42006      -29.97045       37.45535
H         20.43972      -30.31422       38.38235
H         21.07154      -30.53501       36.97041
O         17.03471      -29.73258       37.62862
H         17.33588      -30.55448       38.09082
H         16.83466      -29.08797       38.35148

Ca 1.70



