%chk=loop2.cluster167.chk
%nprocshared=48
%mem=10GB
%nosave
#b3lyp/svp scf=(tight,noincore) Test 
#IOP(5/87=12) Density=Current Pop=(MK,readradii) iop(6/33=2) iop(6/42=6)

loop2.cluster167 

   -2  1 
C         87.08850       74.31521       18.00877
C         88.54366       74.17996       17.69843
O         89.03854       74.88284       16.82727
H         86.51523       73.83381       17.19188
H         86.84711       73.80549       18.96584
H         86.80336       75.38383       18.09951
N         89.28896       73.25572       18.36888
C         90.69278       72.98668       18.08781
C         91.53619       73.84351       19.01581
O         92.41020       73.34066       19.70941
C         90.88979       71.45883       18.24066
C         92.18600       70.89905       17.74144
O         92.52217       71.07216       16.58123
O         92.92344       70.10296       18.53925
H         88.80427       72.63988       19.03836
H         90.92431       73.27175       17.03553
H         90.09132       70.96883       17.64473
H         90.73975       71.17553       19.30733
N         91.29410       75.18452       19.06826
C         91.97423       76.10310       19.95887
C         90.95221       77.06462       20.57813
O         89.82343       77.11897       20.10600
C         93.06367       76.79819       19.13652
H         90.58502       75.58225       18.44633
H         92.44823       75.53609       20.78632
H         92.64800       77.30945       18.24146
H         93.63751       77.53343       19.71895
H         93.77061       76.01428       18.78453
N         91.21455       77.81102       21.68560
C         92.48160       77.86286       22.39172
C         92.49553       76.97758       23.61151
O         91.51751       76.30391       23.90514
C         92.76677       79.33249       22.75676
C         92.85277       80.18900       21.52015
O         93.77291       80.00198       20.74093
O         91.94894       81.16538       21.24140
H         90.45490       78.39331       22.05145
H         93.29918       77.44091       21.78904
H         93.72422       79.41950       23.31326
H         91.95357       79.68982       23.41487
N         93.66184       76.87241       24.31015
C         93.90234       75.94022       25.38975
C         93.77442       74.52741       24.90357
O         94.16467       74.25798       23.77515
H         94.46147       77.44549       24.01106
H         93.26189       76.13732       26.25704
H         94.95499       76.08244       25.71566
N         93.32530       73.52230       25.70277
C         93.03602       73.66616       27.13665
C         91.74398       74.41839       27.48643
O         91.54321       74.71725       28.65641
C         92.96258       72.25481       27.74393
C         94.28667       71.53283       27.65132
N         95.29530       71.84610       28.49684
O         94.43703       70.63728       26.83314
H         93.32580       72.57510       25.29144
H         93.87864       74.21993       27.60924
H         92.18943       71.69202       27.17417
H         92.65386       72.27512       28.80796
H         95.16970       72.57777       29.21136
H         96.18344       71.32342       28.46490
N         90.82028       74.74074       26.54116
C         89.58662       75.46438       26.83290
C         89.83312       76.86539       27.34108
O         89.13010       77.31224       28.23710
H         90.97983       74.44697       25.56945
H         88.93883       74.91218       27.54853
H         89.03102       75.55168       25.87663
N         90.79922       77.63044       26.76705
C         91.10332       78.99885       27.14735
C         90.31120       79.89370       26.22794
O         90.87973       80.64024       25.45507
C         92.63636       79.20612       27.03701
C         93.08215       80.50633       27.69643
O         93.28704       78.14843       27.68807
H         91.37037       77.20923       26.03760
H         90.78408       79.19076       28.19385
H         92.91649       79.19596       25.95177
H         94.20737       78.11068       27.31600
H         92.80924       80.46502       28.77275
H         94.18569       80.59612       27.60896
H         92.61367       81.39576       27.23261
N         88.95749       79.79626       26.22640
C         88.10917       80.36882       25.20226
C         87.57323       81.71542       25.64499
O         87.78109       82.13029       26.77530
C         86.94376       79.36794       24.86420
C         87.43458       77.91612       24.61620
C         85.89896       79.30070       25.99861
C         88.56852       77.78450       23.62015
H         88.52673       79.15146       26.88589
H         88.70242       80.52253       24.26521
H         86.42072       79.73298       23.95370
H         86.58360       77.28682       24.27899
H         87.80014       77.48690       25.56659
H         85.46860       80.29904       26.21135
H         85.06443       78.63104       25.70864
H         86.34245       78.90608       26.93768
H         88.26231       78.15982       22.62303
H         89.45578       78.33752       23.99100
H         88.86556       76.71736       23.53835
N         86.84979       82.43894       24.76562
C         86.25234       83.74058       25.02251
C         84.75030       83.69296       24.88061
O         84.22368       82.63536       24.63221
C         86.90956       84.75158       24.05826
C         87.06158       84.27500       22.62405
O         88.21483       83.66245       22.24054
O         86.14418       84.40078       21.82913
H         86.75676       82.05224       23.83417
H         86.41745       84.05973       26.07201
H         87.93972       84.85655       24.44384
H         86.42367       85.74818       24.10241
N         83.99831       84.81760       25.07592
C         82.53825       84.90571       24.97535
C         82.01398       84.39537       23.62716
O         81.26021       83.42947       23.60024
C         81.86522       84.22924       26.17894
C         80.58376       84.92148       26.59414
C         79.34335       84.31772       26.36317
C         80.63558       86.15327       27.28450
C         78.17434       84.89961       26.86132
C         79.46267       86.73059       27.78373
C         78.23487       86.09253       27.58920
H         84.49100       85.68128       25.33863
H         82.28883       85.97998       25.07746
H         82.52778       84.29221       27.06766
H         81.71424       83.14520       25.98859
H         79.28633       83.39223       25.80794
H         81.58466       86.64494       27.46874
H         77.22360       84.41238       26.69734
H         79.50804       87.66059       28.33963
H         77.33022       86.52070       28.00224
N         82.38448       84.98639       22.44898
C         81.94754       84.51437       21.14116
C         82.49551       83.15510       20.73681
O         82.19085       82.69439       19.64477
C         82.49367       85.57992       20.18650
C         82.59104       86.81044       21.07170
C         83.10170       86.23241       22.38426
H         80.83625       84.49817       21.14006
H         83.54258       85.33140       19.90834
H         81.89054       85.69723       19.26056
H         83.22505       87.62116       20.65964
H         81.55785       87.18877       21.24313
H         84.18836       86.01530       22.34712
H         82.86763       86.93789       23.20633
N         83.32741       82.46716       21.56507
C         83.86286       81.15842       21.25080
C         83.30247       80.08048       22.18123
O         83.31506       78.91500       21.81345
C         85.38290       81.27196       21.28413
C         86.06264       80.10706       20.60706
C         87.44598       80.48250       20.25498
O         88.36120       80.68825       21.21458
O         87.73067       80.63935       19.08072
H         83.62281       82.90121       22.43572
H         83.56859       80.88777       20.21962
H         85.72883       81.36452       22.30794
H         85.66052       82.20433       20.73929
H         85.54207       79.93132       19.64794
H         86.04193       79.19144       21.23112
N         82.75978       80.40718       23.38940
C         82.13962       79.46238       24.28202
H         81.15195       79.18674       23.86534
H         82.78113       78.57465       24.45286
H         81.96686       79.96043       25.26511
H         82.74384       81.37128       23.69003
Ca        90.12307       82.58102       21.46203
O         90.57275       83.08611       23.90028
H         91.21625       82.64684       24.49464
H         90.50657       84.00536       24.24501
O         90.53190       81.88727       18.53256
H         90.06225       82.39106       17.82390
H         89.80882       81.45630       19.03820
O         89.40991       84.48270       19.46887
H         89.21250       85.42489       19.24385
H         88.54597       84.00912       19.36512
O         92.63198       83.36349       19.94544
H         92.50306       84.05195       19.24889
H         93.19977       82.67315       19.51806

Ca 1.70



