%chk=loop2.cluster216.chk
%nprocshared=48
%mem=10GB
%nosave
#b3lyp/svp scf=(tight,noincore) Test 
#IOP(5/87=12) Density=Current Pop=(MK,readradii) iop(6/33=2) iop(6/42=6)

loop2.cluster216 

   -2  1 
C         83.07130       54.01217       27.50141
C         84.49245       54.35489       27.81985
O         85.21309       54.77300       26.92260
H         82.50765       54.92750       27.22387
H         83.06368       53.30291       26.64798
H         82.57441       53.52781       28.36681
N         84.97407       54.19875       29.09149
C         86.38754       54.38044       29.43336
C         86.70928       55.85657       29.76095
O         87.50711       56.14108       30.64533
C         86.70766       53.39086       30.58299
C         88.14489       52.98342       30.73024
O         88.48859       52.14506       31.72682
O         88.98510       53.32826       29.91519
H         84.33780       53.81707       29.80820
H         86.97680       54.07358       28.54180
H         86.17238       52.43498       30.38657
H         86.31025       53.80397       31.53585
N         86.04935       56.83946       29.08534
C         86.17406       58.28211       29.27254
C         84.88688       58.94196       28.72807
O         84.23291       58.35868       27.87232
C         87.40383       58.78377       28.50841
H         85.35270       56.53334       28.42086
H         86.25805       58.50007       30.36244
H         88.32160       58.27052       28.86213
H         87.27436       58.57507       27.42418
H         87.55382       59.87310       28.63663
N         84.37275       60.09469       29.22198
C         85.06821       61.00333       30.11444
C         84.64149       60.78543       31.54946
O         83.81979       59.91990       31.81518
C         84.78807       62.43546       29.60102
C         85.34428       62.66940       28.21402
O         86.12155       61.74737       27.61271
O         85.09637       63.71090       27.63030
H         83.43978       60.38015       28.88070
H         86.15833       60.82464       30.10667
H         85.20464       63.20864       30.27636
H         83.68606       62.57526       29.55878
N         85.23236       61.51167       32.54341
C         84.92005       61.34526       33.95659
C         85.31067       59.97043       34.45298
O         86.24971       59.40402       33.91166
H         85.94689       62.20760       32.28703
H         83.85407       61.57192       34.13223
H         85.51793       62.08180       34.53480
N         84.71858       59.37217       35.53074
C         83.68217       59.97771       36.37659
C         82.31871       60.12961       35.70768
O         81.44225       60.73619       36.30831
C         83.47604       59.09055       37.62744
C         84.74448       58.94816       38.42914
N         85.18601       59.96738       39.20001
O         85.36903       57.89823       38.39432
H         85.09339       58.45073       35.80766
H         84.03584       60.98293       36.69568
H         83.14933       58.08624       37.27416
H         82.68032       59.48376       38.29751
H         84.64425       60.84074       39.27207
H         86.05040       59.86502       39.75204
N         82.04579       59.57591       34.49339
C         80.73794       59.68746       33.86872
C         80.40816       61.12088       33.54902
O         79.36319       61.61298       33.95139
H         82.76941       59.03544       34.00238
H         79.95735       59.23455       34.51746
H         80.75591       59.12227       32.91071
N         81.25882       61.83216       32.76770
C         80.97946       63.15598       32.25742
C         80.41930       62.92460       30.87497
O         81.15713       62.98994       29.90740
C         82.28914       63.99259       32.26447
C         82.05523       65.43400       31.80041
O         82.82347       64.01449       33.56187
H         82.08738       61.35550       32.40461
H         80.21963       63.68495       32.87528
H         83.01910       63.50158       31.58328
H         83.77391       64.29348       33.47294
H         83.01948       65.98685       31.80532
H         81.64379       65.46635       30.77079
H         81.35270       65.94422       32.49275
N         79.12667       62.51136       30.73629
C         78.54661       62.13583       29.44998
C         77.38615       63.06587       29.09589
O         76.82143       63.70092       29.97414
C         78.10010       60.63171       29.45554
C         79.26108       59.62487       29.69819
C         77.04819       60.35990       30.55322
C         80.42368       59.65204       28.70680
H         78.53534       62.45872       31.57713
H         79.29723       62.27122       28.64576
H         77.63638       60.41009       28.47249
H         78.84847       58.58925       29.67520
H         79.67846       59.80512       30.70923
H         76.17861       61.04181       30.47433
H         76.67729       59.31564       30.47908
H         77.49710       60.47354       31.56458
H         80.87167       60.65886       28.61877
H         81.21388       58.96456       29.07945
H         80.11495       59.28810       27.71082
N         77.03000       63.23108       27.78853
C         75.96741       64.13048       27.34199
C         75.22386       63.53710       26.15430
O         75.84675       63.04619       25.22511
C         76.53656       65.50725       26.97053
C         77.57378       65.41447       25.90460
O         78.87057       65.34802       26.24974
O         77.24237       65.27097       24.73925
H         77.60672       62.77930       27.07316
H         75.25172       64.33229       28.16796
H         76.99198       65.96255       27.87581
H         75.72176       66.19065       26.63781
N         73.87087       63.62389       26.10144
C         73.07382       63.14503       24.97333
C         73.26679       61.64337       24.75866
O         73.21447       60.91409       25.73223
C         71.59220       63.49136       25.25293
C         70.65650       62.89811       24.23519
C         70.22475       61.56855       24.38205
C         70.23471       63.64446       23.12433
C         69.39249       60.98958       23.42549
C         69.40856       63.05581       22.16176
C         68.98881       61.72986       22.31226
H         73.38837       64.08635       26.88625
H         73.37925       63.69541       24.05930
H         71.50576       64.60133       25.25649
H         71.28186       63.14200       26.26181
H         70.53973       60.98229       25.23691
H         70.56835       64.66629       22.99205
H         69.06912       59.96382       23.54441
H         69.10066       63.62441       21.29491
H         68.35370       61.27428       21.56512
N         73.43076       61.10098       23.49794
C         73.52866       59.66275       23.25677
C         74.74854       58.97852       23.83570
O         74.83856       57.75846       23.74215
C         73.55161       59.57177       21.72304
C         72.70155       60.76431       21.33246
C         73.24896       61.83957       22.26906
H         72.60438       59.19957       23.66673
H         74.57937       59.79097       21.34802
H         73.22655       58.59228       21.31158
H         72.71883       61.03773       20.25724
H         71.65000       60.53326       21.62268
H         74.23356       62.21849       21.92108
H         72.50891       62.65598       22.31732
N         75.73947       59.68621       24.44528
C         76.88118       59.04407       25.07974
C         76.44285       58.22451       26.29605
O         77.23393       57.43750       26.79252
C         77.90997       60.09824       25.51854
C         78.47601       60.92434       24.34616
C         79.40329       62.01258       24.81014
O         79.89727       62.88933       23.92299
O         79.69354       62.13380       25.98963
H         75.67662       60.71095       24.46008
H         77.36388       58.36633       24.34023
H         78.75406       59.60503       26.03330
H         77.39923       60.77655       26.22804
H         77.65284       61.41903       23.79286
H         79.02057       60.26158       23.64108
N         75.19708       58.38440       26.83979
C         74.69412       57.59045       27.93994
H         73.72513       57.13947       27.63360
H         75.38334       56.77174       28.22666
H         74.51253       58.24693       28.81645
H         74.57005       59.10487       26.47465
Ca        81.09065       64.58757       24.77214
O         82.08929       64.80094       22.23090
H         81.63050       64.16119       21.63245
H         81.75293       65.68980       21.95631
O         83.10265       62.70077       24.80123
H         83.40777       62.60030       25.73591
H         83.65064       62.05928       24.28768
O         81.56947       67.22189       25.85967
H         80.99695       68.00988       26.03357
H         82.28466       67.27061       26.54149
O         83.79900       65.62275       24.61376
H         84.60620       65.11769       24.88273
H         84.07164       66.12672       23.80684
O         81.98588       64.45852       27.39749
H         82.55074       63.67267       27.59466
H         81.19381       64.34917       27.97675
O         79.91994       66.70728       23.34833
H         79.94577       67.60662       23.75506
H         79.10508       66.29689       23.71877

Ca 1.70



