%chk=loop3.cluster92.chk
%nprocshared=48
%mem=10GB
%nosave
#b3lyp/svp scf=(tight,noincore) Test 
#IOP(5/87=12) Density=Current Pop=(MK,readradii) iop(6/33=2) iop(6/42=6)

loop3.cluster92 

   0  1 
C         86.21172       74.21028       28.14900
C         85.71430       73.30790       29.23837
O         84.59376       73.48385       29.69539
H         87.25528       73.95678       27.86714
H         85.56722       74.11986       27.25084
H         86.19627       75.25898       28.51302
N         86.50646       72.30338       29.70687
C         86.11430       71.46871       30.83698
C         86.24837       72.21567       32.14799
O         85.56837       71.86066       33.09421
C         86.90606       70.13999       30.88176
C         88.41116       70.24312       30.96745
O         88.97865       71.32356       30.96712
O         89.14150       69.11502       31.04064
H         87.42542       72.15677       29.26819
H         85.04390       71.18802       30.70824
H         86.65559       69.55710       29.96969
H         86.56948       69.55835       31.76321
N         87.10441       73.26859       32.26712
C         87.30699       74.02563       33.50037
C         88.05326       73.18880       34.52184
O         88.98376       72.47893       34.16741
C         88.08724       75.31125       33.19701
C         87.28951       76.19706       32.22062
C         88.11802       77.39524       31.77473
C         87.46011       78.09097       30.57757
N         88.34848       79.11029       30.02406
H         87.64822       73.54632       31.43816
H         86.32719       74.35498       33.91414
H         89.06564       75.03462       32.74445
H         88.27795       75.88056       34.13362
H         86.32545       76.52586       32.67182
H         87.04657       75.61231       31.31158
H         89.11447       77.03135       31.44815
H         88.25216       78.10287       32.62376
H         86.49313       78.54128       30.89098
H         87.25178       77.34348       29.77692
H         89.15088       78.64285       29.53990
H         87.82232       79.68077       29.32470
H         88.71267       79.73349       30.77991
N         87.66891       73.22455       35.82587
C         88.18477       72.29368       36.83138
C         87.55704       70.89602       36.65427
O         87.94925       69.96525       37.34507
C         88.04228       72.93000       38.24016
C         86.67652       73.49015       38.54756
O         86.53456       74.69696       38.68315
O         85.60877       72.68146       38.64705
H         86.90366       73.86360       36.08229
H         89.28041       72.16644       36.68909
H         88.75004       73.78959       38.27046
H         88.35697       72.22162       39.03198
N         86.58172       70.69606       35.71800
C         85.89901       69.44834       35.41518
C         86.68201       68.44294       34.59685
O         87.86961       68.63798       34.38125
H         86.22736       71.51198       35.22650
H         85.03794       69.72426       34.77790
H         85.52342       68.99598       36.34022
N         86.08762       67.30977       34.09511
C         84.66915       66.96237       34.25760
C         84.14918       66.33385       32.95624
O         84.15618       65.11417       32.85758
C         84.51840       65.94561       35.41579
C         85.03459       66.47808       36.72390
N         86.33263       66.30242       37.06692
O         84.28099       67.07918       37.47477
H         86.68602       66.63046       33.59689
H         84.03686       67.82438       34.54349
H         85.05446       64.99949       35.19009
H         83.44131       65.69179       35.53832
H         86.97335       65.79102       36.44174
H         86.69557       66.67895       37.95465
N         83.73405       67.05822       31.87559
C         83.52982       68.49216       31.84539
C         82.32570       68.86093       32.66562
O         82.40247       69.79345       33.45311
H         83.49010       66.54008       31.01624
H         83.30223       68.78096       30.79565
H         84.43499       69.04502       32.16100
N         81.15909       68.15944       32.53016
C         80.00541       68.43220       33.37370
C         80.33172       68.08119       34.80330
O         80.70076       66.95635       35.10815
C         78.73480       67.71011       32.90274
C         78.27529       68.32101       31.60291
C         77.83019       69.65879       31.57307
C         78.30405       67.57895       30.41708
C         77.43474       70.24398       30.37078
C         77.91140       68.16950       29.21223
C         77.47824       69.50525       29.18610
O         77.10543       70.08541       28.02835
H         81.10658       67.39162       31.84280
H         79.78662       69.51850       33.31096
H         77.91448       67.85448       33.64271
H         78.93295       66.61980       32.82123
H         77.79219       70.24891       32.48181
H         78.64675       66.55248       30.42496
H         77.09981       71.27439       30.35990
H         77.94967       67.59139       28.29924
H         77.13391       69.60599       27.18869
N         80.24878       69.06839       35.72238
C         80.67097       68.95249       37.11147
C         79.74081       68.11373       37.96391
O         80.03365       67.94497       39.14324
C         80.79945       70.39065       37.70790
C         81.83063       71.23885       36.91384
C         79.43834       71.11773       37.73647
C         83.26655       70.80347       37.16403
H         79.94115       69.98255       35.37893
H         81.66630       68.46253       37.13740
H         81.14224       70.32983       38.76146
H         81.76413       72.30362       37.21176
H         81.63166       71.20351       35.82473
H         78.99479       71.28087       36.73688
H         78.70670       70.54838       38.34595
H         79.57019       72.12099       38.18438
H         83.52845       71.00612       38.22189
H         83.41705       69.73038       36.94951
H         83.94389       71.38815       36.50926
N         78.60517       67.54861       37.46528
C         77.73546       66.75616       38.31365
C         76.97679       67.64857       39.29210
O         76.76742       68.82249       39.01425
C         76.75383       65.93475       37.45617
O         76.11741       64.95865       38.23765
H         78.37327       67.64371       36.46551
H         78.37706       66.02534       38.85699
H         77.34320       65.43856       36.64789
H         75.99258       66.59379       36.98362
H         75.94395       64.18290       37.64025
N         76.44193       67.10298       40.41282
C         75.49827       67.80209       41.28275
C         76.05244       68.94525       42.12348
O         77.22294       68.94667       42.48371
C         74.89221       66.77696       42.24465
H         76.62731       66.10333       40.58733
H         74.67053       68.20095       40.65451
H         74.18538       67.25053       42.95614
H         74.34948       66.00471       41.65943
H         75.70398       66.27817       42.82054
N         75.17083       69.88723       42.59116
C         75.44890       70.89210       43.61026
C         76.54872       71.87530       43.26561
O         77.14816       72.42599       44.17479
C         75.63562       70.23336       44.98676
H         74.20011       69.84880       42.24284
H         74.54044       71.52499       43.72054
H         75.79922       70.99921       45.77658
H         74.70679       69.68286       45.25093
H         76.48760       69.52452       44.98948
N         76.82091       72.19249       41.96525
C         77.82474       73.20136       41.63280
C         77.33432       74.24471       40.61828
O         77.95195       75.30183       40.53940
C         79.11236       72.48041       41.20893
C         80.27232       73.46542       41.04331
C         81.57047       72.80708       40.72642
O         82.12584       73.04457       39.66790
O         82.19020       72.03265       41.62636
H         76.35672       71.67178       41.21423
H         78.07910       73.77472       42.54972
H         78.92238       71.91189       40.28228
H         79.37524       71.74452       42.00123
H         80.40819       74.04705       41.98033
H         80.03897       74.15821       40.21284
N         76.23576       74.05149       39.82942
C         75.76601       75.04520       38.88047
H         74.75972       75.39376       39.19072
H         76.43573       75.92917       38.80952
H         75.69060       74.59401       37.86814
H         75.70003       73.17621       39.88527
Ca        84.26568       71.47689       40.98957
O         85.49222       69.27732       42.15743
H         86.44984       69.03737       42.21749
H         85.01042       68.56745       42.64823
O         85.05259       74.10332       41.56802
H         84.77098       74.69388       42.30860
H         85.20419       74.71368       40.80638
O         84.59353       71.73243       43.66398
H         84.27030       71.24476       44.46066
H         85.41234       72.20453       43.95611
O         87.07076       71.73668       41.34185
H         87.32999       72.65151       41.61447
H         87.92594       71.25614       41.21495
O         85.51114       69.57808       39.41799
H         86.38446       70.03004       39.32257
H         85.26329       69.31156       38.50343
O         82.64638       69.30762       40.85865
H         81.66314       69.40486       40.81986
H         82.84453       68.44309       40.42306

Ca 1.70



