%chk=loop4.cluster119.chk
%nprocshared=48
%mem=10GB
%nosave
#b3lyp/svp scf=(tight,noincore) Test 
#IOP(5/87=12) Density=Current Pop=(MK,readradii) iop(6/33=2) iop(6/42=6)

loop4.cluster119 

   -3  1 
C        108.32095       27.92827       67.02703
C        109.54939       28.39552       67.76060
O        110.00994       29.49916       67.51344
H        107.48646       28.64597       67.16064
H        108.55748       27.83733       65.94505
H        107.98817       26.92999       67.38505
N        110.16375       27.56419       68.64851
C        111.43211       27.85064       69.32288
C        111.33280       28.97486       70.35051
O        112.29415       29.70900       70.54196
C        112.56699       28.09782       68.30703
C        112.57414       27.07107       67.21553
O        112.33363       27.39970       66.06541
O        112.82063       25.78442       67.50325
H        109.74885       26.63290       68.80946
H        111.68292       26.92937       69.89701
H        113.55399       28.09662       68.81835
H        112.41899       29.09615       67.85169
N        110.22509       29.08349       71.13075
C        110.09307       30.01111       72.25345
C        110.04081       29.16226       73.51326
O        109.17984       28.29491       73.58760
C        108.77234       30.83506       72.08973
C        108.94141       31.94544       71.02303
C        108.26659       31.45669       73.41667
C        107.60385       32.33713       70.39266
H        109.44408       28.43100       70.95749
H        110.94467       30.71577       72.30604
H        107.99202       30.11516       71.75805
H        109.58478       31.59810       70.18871
H        109.43815       32.83326       71.48113
H        107.31487       32.00549       73.26831
H        108.04554       30.66676       74.16549
H        109.01700       32.15024       73.85174
H        106.85899       32.66245       71.14561
H        107.75540       33.16037       69.66384
H        107.19964       31.45847       69.84392
N        110.87247       29.35163       74.58209
C        111.96548       30.32539       74.64498
C        113.18056       29.80180       73.88560
O        113.81170       30.55898       73.16140
C        112.33246       30.64775       76.10831
C        111.19213       31.33574       76.82410
O        110.04447       30.67672       77.07536
O        111.30648       32.49901       77.17816
H        110.71215       28.75949       75.41189
H        111.64984       31.31305       74.24181
H        113.19600       31.34908       76.09320
H        112.63360       29.73789       76.66950
N        113.51767       28.48232       73.96551
C        114.55223       27.85130       73.15979
C        115.97208       28.26511       73.48205
O        116.34510       28.34302       74.64394
H        112.94288       27.86239       74.55489
H        114.33299       28.01057       72.07947
H        114.50003       26.75780       73.33644
N        116.84585       28.44385       72.45332
C        118.25446       28.79839       72.59280
C        118.51803       30.14510       71.93570
O        119.67458       30.51028       71.77719
C        119.16243       27.66380       72.01259
C        118.92257       27.18509       70.59508
O        119.65949       26.16658       70.11282
O        118.06007       27.67449       69.89007
H        116.48127       28.32441       71.49901
H        118.55473       28.90553       73.65929
H        119.04269       26.77341       72.66408
H        120.22869       27.97846       72.08162
N        117.48459       30.96239       71.55416
C        117.71387       32.21139       70.84749
C        118.22519       31.97756       69.43442
O        118.60532       32.93441       68.77742
H        116.51067       30.70503       71.76547
H        118.42639       32.82713       71.43601
H        116.75754       32.77344       70.76709
N        118.21734       30.72295       68.89462
C        118.66946       30.35472       67.56263
C        117.86837       31.03499       66.47356
O        118.11120       32.19655       66.17877
C        120.18229       30.55265       67.34478
C        121.03608       29.74212       68.33215
C        122.49876       29.76070       67.95163
N        123.28088       28.68567       68.20654
O        122.97915       30.73968       67.39821
H        117.82931       29.95845       69.45186
H        118.48412       29.26042       67.46538
H        120.45477       31.62879       67.41334
H        120.41489       30.19824       66.31623
H        120.69117       28.68559       68.32108
H        120.91376       30.12972       69.36560
H        122.89396       27.85461       68.67743
H        124.27442       28.68651       67.93164
N        116.89139       30.34465       65.81827
C        116.17416       30.89002       64.67124
C        116.17263       29.92409       63.51255
O        115.92160       28.74005       63.69176
C        114.71011       31.28817       64.97137
C        113.91121       30.20044       65.69414
C        114.64804       32.60438       65.74677
H        116.64906       29.39488       66.14250
H        116.66657       31.81765       64.30880
H        114.22603       31.49255       63.98766
H        112.84392       30.49885       65.76255
H        113.96073       29.24100       65.15051
H        114.31009       30.04854       66.71905
H        113.59515       32.95228       65.80110
H        115.06046       32.48567       66.76885
H        115.22967       33.38590       65.20932
N        116.34068       30.41273       62.25380
C        116.18741       29.59095       61.06683
C        114.70940       29.23448       60.86261
O        113.85629       29.65924       61.63836
C        116.76182       30.37246       59.85614
C        117.18799       29.56276       58.64800
N        117.59534       30.20328       57.53145
O        117.22419       28.34182       58.68307
H        116.55610       31.41482       62.13881
H        116.79979       28.67376       61.21014
H        117.69748       30.87860       60.17392
H        116.03290       31.16212       59.57257
H        117.59991       31.23257       57.49457
H        117.89832       29.66735       56.70521
N        114.33940       28.46111       59.81641
C        113.00329       27.94443       59.59511
C        113.10580       26.51238       59.12162
O        114.18466       26.07218       58.72558
C        112.20704       28.80027       58.58110
C        112.98506       29.13010       57.32479
C        112.77428       28.41847       56.13262
C        113.91492       30.18450       57.33958
C        113.49453       28.75133       54.97768
C        114.62278       30.52211       56.18408
C        114.41718       29.80423       54.99901
O        115.09664       30.12195       53.87772
H        115.06770       28.14228       59.18132
H        112.44725       27.90722       60.56036
H        111.89965       29.76136       59.04777
H        111.26099       28.27234       58.32843
H        112.06174       27.60426       56.10004
H        114.07773       30.75379       58.24496
H        113.33308       28.19429       54.06356
H        115.32813       31.34342       56.20939
H        115.73547       30.84957       53.85848
N        112.02209       25.70112       59.16672
C        112.09810       24.30272       58.78578
C        111.26665       24.04152       57.53298
O        111.87329       23.72125       56.52106
C        111.84054       23.35957       59.98653
C        112.78245       23.66316       61.17839
C        112.72100       22.55992       62.20810
O        112.42565       22.78577       63.50856
O        112.97798       21.41905       61.86157
H        111.13842       26.09367       59.52050
H        113.14329       24.05525       58.48372
H        112.02991       22.32582       59.62103
H        110.80803       23.39862       60.36593
H        112.53230       24.64826       61.62602
H        113.82865       23.71189       60.80860
N        109.90226       24.13828       57.45833
C        108.99113       24.45477       58.54848
C        107.99542       25.53889       58.16550
O        107.45898       25.51044       57.06535
C        108.21692       23.19700       59.01960
C        107.41635       22.43022       57.94927
C        108.28097       21.57859       57.06009
O        108.31003       21.77446       55.85586
O        108.98370       20.55625       57.58638
H        109.47478       23.92152       56.54554
H        109.51102       24.79925       59.44939
H        107.50220       23.54788       59.79711
H        108.90411       22.48369       59.52071
H        106.79925       23.13386       57.35665
H        106.72473       21.73327       58.46609
N        107.56395       26.41424       59.11917
C        106.42855       27.29393       58.92371
H        105.58461       26.89829       59.52971
H        106.66449       28.31625       59.28322
H        106.09602       27.34469       57.86570
H        107.97909       26.37400       60.06209
Ca       112.05749       24.69276       64.66245
O        114.97562       23.93886       65.45641
H        115.95382       23.80523       65.52387
H        114.72979       23.51526       64.59647
O        110.72297       26.08815       62.74746
H        109.89363       25.55430       62.66307
H        110.46918       27.01012       62.49936
O        113.86797       26.44442       63.54135
H        113.67891       27.37051       63.82892
H        114.24683       26.53570       62.63321
O        111.99206       23.06694       67.18575
H        111.78164       22.30422       67.77846
H        112.90927       23.33031       67.44781

Ca 1.70



