%chk=loop1.cluster132.chk
%nprocshared=48
%mem=10GB
%nosave
#b3lyp/svp scf=(tight,noincore) Test 
#IOP(5/87=12) Density=Current Pop=(MK,readradii) iop(6/33=2) iop(6/42=6)

loop1.cluster132 

   0  1 
C         73.48680       64.95816       19.25343
C         74.63907       65.52376       18.50529
O         74.84403       65.14031       17.36541
H         72.56903       65.07033       18.64036
H         73.68779       63.88487       19.44396
H         73.34460       65.48718       20.21773
N         75.43289       66.46609       19.07934
C         76.55480       67.05010       18.38193
C         77.72366       66.05353       18.32521
O         78.59188       66.07485       19.18771
C         76.94845       68.37143       19.05469
C         78.02007       69.00803       18.25555
O         78.78337       69.76964       18.80655
O         78.31740       68.48586       17.04479
H         75.21716       66.79371       20.03328
H         76.22274       67.33373       17.35424
H         77.28505       68.20207       20.09957
H         76.08308       69.06921       19.08312
N         77.76198       65.11929       17.33935
C         78.72620       64.02619       17.28004
C         80.16339       64.47401       17.05726
O         81.04782       63.90767       17.68449
C         78.34239       63.05047       16.14626
C         77.04186       62.24575       16.37934
C         77.17487       61.20591       17.51496
C         76.02574       60.17846       17.52373
N         74.75371       60.74816       17.96738
H         77.03322       65.15156       16.61997
H         78.69537       63.45594       18.23172
H         79.15784       62.30831       16.00621
H         78.25034       63.62792       15.19950
H         76.86795       61.67966       15.43917
H         76.16984       62.91275       16.54002
H         77.26460       61.68889       18.51187
H         78.10465       60.62644       17.32843
H         76.29491       59.34742       18.21344
H         75.91538       59.74048       16.50625
H         74.82793       61.03359       18.97088
H         74.47858       61.56671       17.38135
H         74.01239       60.01417       17.88577
N         80.48051       65.43898       16.14491
C         81.87407       65.80693       15.85236
C         82.39610       66.93631       16.72177
O         83.60270       67.15362       16.73701
C         82.11130       66.03739       14.34336
C         81.25981       67.08662       13.68077
O         81.39027       67.28786       12.48489
O         80.35438       67.79773       14.37439
H         79.71140       65.94442       15.68771
H         82.52598       64.94589       16.12315
H         81.92664       65.07953       13.81480
H         83.17540       66.32103       14.18582
N         81.57566       67.63115       17.55210
C         82.08616       68.55037       18.54820
C         82.58906       69.87744       18.01638
O         83.32488       70.54150       18.72733
H         80.56646       67.43202       17.55131
H         82.85358       68.04481       19.17409
H         81.25513       68.80612       19.23821
N         82.04569       70.42588       16.88797
C         82.18199       71.86365       16.59231
C         81.22950       72.69635       17.46615
O         81.20937       73.91548       17.33744
C         82.00427       72.15506       15.07689
C         80.60170       72.01969       14.58715
O         80.06117       72.92235       13.97523
O         79.93723       70.91143       14.89119
H         81.37084       69.86626       16.35773
H         83.22894       72.16282       16.81132
H         82.63877       71.44184       14.51291
H         82.34336       73.18863       14.85295
N         80.44149       72.10247       18.41109
C         79.57583       72.81533       19.32516
C         78.22966       73.21394       18.75621
O         77.48799       73.86473       19.47351
H         80.54039       71.10288       18.57052
H         80.12061       73.68511       19.74596
H         79.33467       72.14159       20.18004
N         77.82227       72.84136       17.50141
C         76.48976       73.18907       16.99400
C         75.74596       71.94212       16.54889
O         76.36549       71.01180       16.07285
C         76.55499       74.22819       15.85066
C         77.33629       75.49238       16.25262
O         77.07611       73.67641       14.67510
H         78.45111       72.29332       16.89964
H         75.88702       73.67361       17.79017
H         75.51557       74.54338       15.61747
H         78.05686       73.70821       14.74711
H         78.39727       75.24502       16.48061
H         77.32667       76.21472       15.40955
H         76.88113       75.96736       17.14501
N         74.38818       71.89928       16.60274
C         73.61668       70.74331       16.15361
C         72.93043       71.09309       14.84195
O         72.30300       72.13577       14.74019
C         72.59766       70.33288       17.25216
C         73.33306       69.87843       18.53641
C         71.67705       69.20339       16.74296
C         72.41593       69.86541       19.76027
H         73.87785       72.72195       16.95311
H         74.26973       69.85951       15.97255
H         71.97733       71.22549       17.48629
H         74.15120       70.58593       18.78473
H         73.78304       68.87334       18.37432
H         72.27827       68.33211       16.40206
H         70.95959       68.85775       17.50953
H         71.06888       69.57349       15.89928
H         71.53798       69.20508       19.62487
H         72.98480       69.51354       20.64580
H         72.06150       70.89989       19.96300
N         72.96319       70.19440       13.81533
C         72.24008       70.37144       12.55903
C         70.89963       69.65927       12.63360
O         70.61928       68.99217       13.61005
C         73.05741       69.81763       11.35330
C         74.39550       70.52220       11.13466
O         73.26451       68.43725       11.46649
H         73.39723       69.29122       13.99574
H         72.02718       71.44882       12.39842
H         72.47049       69.97048       10.42500
H         73.99235       68.29583       12.11840
H         74.23550       71.60235       10.95380
H         75.05531       70.38029       12.01455
H         74.89413       70.07232       10.24731
N         70.00413       69.79499       11.61817
C         68.69333       69.14276       11.63095
C         68.86937       67.62925       11.58996
O         68.32784       66.93331       12.44102
C         67.85002       69.65464       10.43830
C         66.40727       69.13064       10.53047
O         67.84764       71.06390       10.47182
H         70.25349       70.40114       10.82527
H         68.15347       69.44462       12.55770
H         68.31833       69.31356        9.48750
H         67.14595       71.39692        9.85487
H         65.82437       69.47773        9.65124
H         66.38003       68.02267       10.54831
H         65.92447       69.52433       11.45134
N         69.67274       67.06281       10.64600
C         70.00786       65.63752       10.59078
C         70.58078       65.11866       11.90306
O         70.08253       64.12268       12.40261
C         71.03036       65.38377        9.45626
C         70.32424       65.02267        8.14516
C         71.31062       64.94195        6.97478
C         70.68946       64.16128        5.80947
N         71.58683       64.12239        4.65684
H         70.11753       67.69848        9.96233
H         69.09157       65.03114       10.39700
H         71.66386       64.49938        9.69215
H         71.72053       66.25186        9.35833
H         69.51614       65.74104        7.88728
H         69.86189       64.02314        8.31644
H         72.23746       64.41026        7.28094
H         71.58130       65.97757        6.66827
H         69.72083       64.61682        5.50934
H         70.49671       63.11871        6.15264
H         71.72253       65.08820        4.28009
H         72.51052       63.71233        4.92675
H         71.15674       63.52472        3.91433
N         71.62332       65.74664       12.51643
C         72.18635       65.27490       13.78859
C         71.11132       65.12917       14.84504
O         71.13024       64.14214       15.56962
C         73.27349       66.23050       14.33350
C         74.63237       66.07708       13.62452
C         75.67665       67.02911       14.16199
O         75.51037       68.23446       14.10418
O         76.82757       66.55214       14.66530
H         71.98520       66.60407       12.09384
H         72.65083       64.27474       13.64849
H         73.45853       66.00072       15.40297
H         72.87721       67.25826       14.28291
H         74.52452       66.22640       12.53457
H         74.99647       65.03880       13.78385
N         70.11575       66.04726       14.96294
C         69.06859       65.95151       15.95448
H         68.10222       65.75388       15.44558
H         69.25855       65.14362       16.69151
H         68.99988       66.91367       16.50256
H         70.07229       66.82372       14.29600
Ca        78.28890       69.51122       15.07364
O         77.39644       71.15255       12.75936
H         77.13510       71.48457       13.65200
H         77.94666       71.87911       12.37582
O         78.20197       68.23749       11.99688
H         79.18297       68.21689       11.88061
H         77.87628       67.48245       11.44660

Ca 1.70



