%chk=loop1.cluster26.chk
%nprocshared=48
%mem=10GB
%nosave
#b3lyp/svp scf=(tight,noincore) Test 
#IOP(5/87=12) Density=Current Pop=(MK,readradii) iop(6/33=2) iop(6/42=6)

loop1.cluster26 

   0  1 
C         40.16746       38.32689       13.50921
C         39.98565       38.65567       12.06140
O         40.75468       39.42411       11.51171
H         41.00850       38.89940       13.94991
H         39.23404       38.53540       14.07264
H         40.39595       37.24152       13.58627
N         38.96900       38.07809       11.37607
C         38.79280       38.15302        9.92781
C         37.87616       39.29009        9.48510
O         37.46593       39.30373        8.33669
C         38.25732       36.78641        9.42774
C         36.93810       36.38335       10.04632
O         35.90305       36.51940        9.41812
O         36.91042       35.74825       11.23573
H         38.32856       37.48843       11.92150
H         39.76951       38.30844        9.41571
H         39.00192       35.99161        9.64822
H         38.14574       36.81499        8.32214
N         37.50914       40.26876       10.36008
C         36.54898       41.31756       10.03715
C         37.17032       42.66449       10.37333
O         37.46454       42.86703       11.54190
C         35.30021       41.05334       10.90158
C         34.57233       39.73533       10.54310
C         33.98628       39.75953        9.11943
C         33.08950       38.54921        8.82752
N         32.64261       38.56847        7.43339
H         37.88584       40.25541       11.31488
H         36.22865       41.29840        8.99442
H         34.58194       41.89327       10.81034
H         35.61963       40.98943       11.96740
H         33.74699       39.60447       11.27329
H         35.25711       38.86470       10.65301
H         34.81165       39.76369        8.37943
H         33.37859       40.68030        8.98805
H         32.20495       38.56971        9.50303
H         33.64338       37.60634        9.01293
H         32.04808       37.72912        7.24698
H         32.08440       39.43208        7.24234
H         33.47043       38.53909        6.79361
N         37.45569       43.65042        9.45930
C         37.24686       43.67912        8.00496
C         35.79342       43.83716        7.59906
O         34.92137       43.43398        8.35441
C         37.90997       42.53506        7.20346
C         39.36910       42.36963        7.45730
O         40.00903       43.16009        8.33266
O         39.98797       41.51291        6.85258
H         37.91287       44.49339        9.84792
H         37.74501       44.62371        7.69942
H         37.78135       42.74057        6.13264
H         37.42107       41.56684        7.35917
N         35.42361       44.45871        6.43295
C         36.34399       45.12490        5.50961
C         35.80393       45.07789        4.09188
O         34.86885       45.81895        3.82119
H         34.41318       44.56414        6.25079
H         37.40093       44.85131        5.62140
H         36.37156       46.19775        5.79333
N         36.24933       44.21594        3.12670
C         37.39839       43.32561        3.25518
C         36.92321       41.89493        3.51999
O         35.77962       41.57068        3.24922
C         38.25755       43.52003        1.97577
C         39.67547       43.02101        1.97193
O         40.43019       43.37095        1.07948
O         40.14024       42.22874        2.93902
H         35.74684       44.20726        2.22547
H         38.02279       43.63564        4.10111
H         38.34661       44.61831        1.83609
H         37.73068       43.10585        1.08795
N         37.76170       41.01424        4.13281
C         37.36170       39.64997        4.46176
C         38.48601       38.72825        4.92953
O         38.17836       37.56895        5.18817
H         38.67036       41.35668        4.40653
H         36.93758       39.17302        3.55287
H         36.57124       39.68546        5.24271
N         39.80130       39.11214        5.01206
C         40.87047       38.19000        5.34029
C         41.63678       38.68723        6.59718
O         42.49947       39.73320        6.20541
C         41.79387       38.04224        4.09490
C         41.00803       37.45392        2.91621
O         42.88381       37.20718        4.38602
H         40.10121       40.06095        4.77883
H         40.44972       37.18740        5.57176
H         42.17315       39.05377        3.81115
H         43.48764       37.23736        3.59685
H         40.64365       36.43919        3.18220
H         40.14079       38.09489        2.65438
H         41.65830       37.37908        2.02009
N         42.42928       37.55182        7.12279
C         43.07182       37.79628        8.42760
C         44.49538       38.22610        8.18636
O         44.97806       39.07983        8.90238
C         42.94573       36.58291        9.39076
C         43.30474       36.99334       10.84010
C         43.78884       35.38506        8.91501
C         42.81699       35.98214       11.87761
H         41.85698       36.67840        7.14818
H         42.52906       38.61782        8.92346
H         41.86714       36.30490        9.39160
H         42.79035       37.94474       11.08568
H         44.39786       37.16513       10.94231
H         43.53954       35.11672        7.86778
H         44.87132       35.63484        8.96330
H         43.61138       34.49351        9.54661
H         41.71534       35.85478       11.78826
H         43.30967       34.99806       11.75667
H         43.03683       36.36620       12.89594
N         45.17662       37.72706        7.10872
C         46.31626       38.36023        6.45530
C         47.42351       38.90278        7.35716
O         48.49885       38.32247        7.39021
C         45.75923       39.41730        5.45798
C         46.84113       40.13059        4.63933
O         45.00780       40.35714        6.16830
H         44.69727       37.01480        6.53809
H         46.79077       37.56748        5.83404
H         45.07535       38.89287        4.75309
H         44.70590       41.04054        5.53058
H         47.43088       39.39954        4.05449
H         46.36488       40.84893        3.93671
H         47.50283       40.71719        5.30224
N         47.27823       40.10976        7.97040
C         48.35382       40.88426        8.54463
C         49.29236       41.38978        7.47123
O         49.65173       40.67949        6.54216
C         49.06794       40.33388        9.79159
C         48.05627       40.07692       10.91375
O         49.97248       41.31969       10.22946
H         46.38601       40.59825        7.91023
H         47.85665       41.80252        8.93091
H         49.62801       39.40463        9.54413
H         50.61841       40.88423       10.84224
H         47.42892       39.19539       10.67442
H         48.59035       39.89597       11.87006
H         47.39813       40.96348       11.05786
N         49.74770       42.65452        7.59776
C         50.63789       43.32325        6.69844
C         50.23143       44.76516        6.31704
O         50.93818       45.26315        5.45080
C         52.03947       43.33209        7.36661
C         52.94118       42.14120        6.99872
C         53.42850       42.21819        5.53715
C         54.58746       41.23929        5.30379
N         54.91411       41.12015        3.88313
H         49.53830       43.11867        8.46250
H         50.68110       42.77969        5.72932
H         51.90459       43.35512        8.47310
H         52.61586       44.24394        7.11361
H         52.44045       41.16373        7.18664
H         53.83069       42.20208        7.66103
H         53.79465       43.24218        5.29636
H         52.58292       41.98112        4.85888
H         54.30707       40.23706        5.68855
H         55.48331       41.59477        5.86594
H         54.06120       40.83925        3.34655
H         55.28935       42.02144        3.50891
H         55.63622       40.37260        3.76676
N         49.22203       45.57462        6.82306
C         48.22833       45.43226        7.90379
C         48.87906       45.20026        9.25621
O         48.41754       44.36696       10.02745
C         47.02090       44.51264        7.56741
C         46.30644       44.92073        6.26571
C         45.14031       44.00518        5.96612
O         44.07380       43.91157        6.79965
O         45.18173       43.31212        4.96660
H         49.19828       46.51481        6.39563
H         47.76675       46.43986        8.01451
H         46.28558       44.59212        8.39945
H         47.33015       43.45850        7.47722
H         47.04282       44.83189        5.43614
H         45.96091       45.97534        6.31387
N         50.01053       45.88107        9.58186
C         50.76646       45.57620       10.77597
H         51.67110       46.21902       10.81604
H         50.15329       45.74450       11.68431
H         51.10009       44.51517       10.74078
H         50.37805       46.59359        8.93506
Ca        42.77002       41.98076        6.86439
O         43.02741       41.94660        4.08696
H         43.26446       41.92347        3.12895
H         42.06864       41.72663        4.13685
O         44.77221       42.21654        8.86250
H         44.73908       41.39019        9.39865
H         44.90928       42.92789        9.53224
O         42.03282       41.25571        9.50207
H         41.39152       41.88182        9.91436
H         41.56132       40.39334        9.53675
O         40.99546       44.27758        5.48418
H         40.51427       43.61625        4.93015
H         40.51106       45.12475        5.32315
O         42.51229       44.29027        9.00913
H         41.75916       44.63898        9.54609
H         43.17215       45.02732        8.99427

Ca 1.70



