%chk=loop1.cluster33.chk
%nprocshared=48
%mem=10GB
%nosave
#b3lyp/svp scf=(tight,noincore) Test 
#IOP(5/87=12) Density=Current Pop=(MK,readradii) iop(6/33=2) iop(6/42=6)

loop1.cluster33 

   0  1 
C         37.23442       86.49080      121.50859
C         37.51807       86.02561      122.90697
O         37.66799       84.83784      123.14899
H         36.29662       87.08694      121.51118
H         38.06431       87.15385      121.17739
H         37.13689       85.64603      120.79892
N         37.63269       86.96153      123.87918
C         37.98815       86.67293      125.26698
C         36.89670       85.97478      126.09101
O         37.14067       85.73499      127.26934
C         38.46195       87.98653      125.95564
C         37.47673       89.12983      126.00930
O         37.08993       89.60634      127.20361
O         37.10601       89.69399      124.99045
H         37.54172       87.93793      123.58124
H         38.88021       86.00869      125.26884
H         39.36588       88.35916      125.42748
H         38.76397       87.74796      126.99721
N         35.67174       85.64614      125.57789
C         34.57471       85.13138      126.40378
C         33.95495       83.86406      125.80596
O         33.50098       83.95344      124.67130
C         33.45429       86.19135      126.40564
C         33.86635       87.57165      126.93734
C         32.65741       88.51269      126.79997
C         32.87238       89.93773      127.32286
N         33.94004       90.63487      126.61021
H         35.46892       85.85170      124.58808
H         34.89913       84.97185      127.44973
H         32.59803       85.81662      127.00742
H         33.10431       86.33224      125.35690
H         34.71362       87.96737      126.33643
H         34.18472       87.48788      127.99854
H         31.80251       88.07729      127.36049
H         32.37267       88.57532      125.72581
H         33.09134       89.92326      128.41352
H         31.91966       90.49020      127.16856
H         33.84241       90.51825      125.57546
H         33.90888       91.65248      126.84683
H         34.85478       90.25817      126.92344
N         33.80972       82.65991      126.45157
C         34.35688       82.22201      127.74134
C         33.81956       82.96180      128.97114
O         33.13016       83.95653      128.81539
C         35.90255       82.18710      127.65940
C         36.31156       81.34058      126.49120
O         36.89357       81.86201      125.55721
O         35.98794       80.02008      126.46226
H         33.30086       81.92780      125.92977
H         33.99872       81.17440      127.85456
H         36.39265       81.76743      128.55515
H         36.29673       83.21365      127.54473
N         34.06783       82.52725      130.25133
C         34.77394       81.29250      130.57235
C         36.08626       81.56838      131.27869
O         36.30614       82.69773      131.69438
H         33.71674       83.09346      131.04036
H         34.92656       80.69621      129.67445
H         34.14284       80.65620      131.23063
N         37.02174       80.59596      131.49650
C         37.02106       79.28248      130.85642
C         38.39941       79.09506      130.26635
O         39.34676       78.94522      131.02526
C         36.68047       78.17400      131.87440
C         36.64169       76.78048      131.29121
O         36.86580       76.58487      130.10889
O         36.35696       75.73508      132.08912
H         37.84455       80.84296      132.06976
H         36.27817       79.21773      130.04616
H         35.67689       78.38738      132.30103
H         37.42270       78.18811      132.69960
N         38.59653       79.13110      128.91789
C         39.93407       79.00691      128.36379
C         40.18268       79.88175      127.16530
O         39.26455       80.44508      126.59488
H         37.79423       79.26490      128.28817
H         40.11923       77.95537      128.06084
H         40.69009       79.28476      129.12752
N         41.46371       80.01440      126.73205
C         41.84188       80.74204      125.52024
C         41.26324       80.07495      124.28213
O         40.76005       78.97283      124.37631
C         43.39493       80.84966      125.42049
C         44.08040       79.46852      125.41312
O         43.94790       81.62689      126.46152
H         42.19423       79.59270      127.31525
H         41.41147       81.76734      125.57831
H         43.64174       81.36373      124.46762
H         43.25320       81.85499      127.13259
H         43.71206       78.84788      124.57093
H         45.17660       79.59337      125.31617
H         43.91563       78.90078      126.35096
N         41.29878       80.71299      123.07622
C         40.58259       80.21096      121.90177
C         41.51660       79.64957      120.85013
O         42.29096       80.38771      120.26575
C         39.60296       81.29451      121.30119
C         39.03659       80.81225      119.93546
C         40.23003       82.69512      121.15708
C         37.81553       81.57844      119.43450
H         41.80841       81.60059      123.00866
H         39.93713       79.35726      122.19224
H         38.76897       81.42897      122.00740
H         38.71517       79.75804      120.01296
H         39.84450       80.87911      119.17296
H         39.48877       83.42645      120.78229
H         40.53918       83.09791      122.14192
H         41.09909       82.67836      120.47060
H         37.57828       81.24274      118.40545
H         36.94307       81.35377      120.08301
H         37.98223       82.66955      119.39285
N         41.38695       78.33218      120.49313
C         41.98805       77.76961      119.28603
C         40.91622       77.26897      118.30908
O         41.27679       76.81588      117.23101
C         42.99156       76.64796      119.63670
C         42.34064       75.43276      120.30806
O         43.99424       77.14740      120.48225
H         40.77152       77.72234      121.05103
H         42.55075       78.55933      118.74560
H         43.45866       76.28444      118.69208
H         44.47301       77.85520      119.97611
H         41.89584       75.70551      121.28688
H         41.55241       74.99466      119.66000
H         43.11212       74.65322      120.48230
N         39.58312       77.34949      118.60496
C         38.49429       76.94381      117.72489
C         38.35039       75.43594      117.64671
O         39.29422       74.69763      117.89049
C         38.52211       77.60998      116.31825
C         38.66584       79.13523      116.41549
O         37.33776       77.28839      115.62676
H         39.29094       77.74028      119.50675
H         37.56730       77.29402      118.23410
H         39.38537       77.20675      115.74926
H         37.30168       77.82837      114.79456
H         38.78156       79.56305      115.39648
H         37.75991       79.56989      116.88105
H         39.56396       79.41970      117.00066
N         37.12481       74.93112      117.34971
C         36.80837       73.52681      117.20760
C         35.79214       72.93275      118.20461
O         35.79390       71.71018      118.26673
C         36.24391       73.31432      115.78686
C         37.25007       73.49996      114.64272
C         38.26189       72.34519      114.61187
C         38.98052       72.20623      113.26265
N         39.79708       73.36924      112.92330
H         36.39449       75.60147      117.15404
H         37.72721       72.91708      117.34720
H         35.41727       74.03608      115.63673
H         35.79974       72.30082      115.68073
H         37.75879       74.48929      114.68559
H         36.65450       73.46127      113.70589
H         37.71031       71.38968      114.74988
H         38.99152       72.44402      115.44435
H         38.22857       72.03289      112.45912
H         39.62954       71.30541      113.31872
H         40.36648       73.13513      112.07746
H         39.18751       74.18719      112.69537
H         40.44188       73.60496      113.71118
N         34.84932       73.58503      118.96946
C         34.54074       75.00471      119.11990
C         34.13629       75.69247      117.81834
O         34.48713       76.84522      117.59961
C         35.54309       75.67430      120.10756
C         35.16470       77.12229      120.47434
C         35.21862       77.44104      121.95522
O         36.36787       77.49552      122.65734
O         34.17835       77.72113      122.52808
H         34.23380       72.96548      119.52291
H         33.58157       75.02903      119.68851
H         36.60299       75.61856      119.79183
H         35.47113       75.05067      121.02653
H         34.10311       77.28082      120.19217
H         35.76259       77.84126      119.87246
N         33.40046       75.01687      116.89004
C         33.04838       75.60325      115.61230
H         32.32076       76.42927      115.74999
H         33.95864       75.98877      115.10289
H         32.59568       74.82783      114.95694
H         33.13062       74.03843      117.06963
Ca        36.11333       78.52944      124.70385
O         38.08585       79.83104      123.66001
H         37.35602       80.20785      123.10911
H         38.33340       80.55462      124.28016
O         33.37888       78.35295      125.65819
H         32.80079       79.12460      125.43456
H         32.77642       77.70449      126.10075
O         35.13878       75.60316      125.16848
H         34.42363       75.63455      125.85255
H         35.42848       74.65693      125.15492
O         38.41631       76.90311      125.11327
H         39.03306       76.13568      125.04039
H         38.99811       77.69558      125.06714
O         34.77146       80.55577      123.31847
H         35.31565       81.15167      123.88585
H         34.91822       80.90011      122.40418
O         36.55180       77.21908      127.19010
H         37.45181       77.08116      127.57743
H         35.92692       76.79188      127.82497

Ca 1.70



