%chk=loop4.cluster8.chk
%nprocshared=48
%mem=10GB
%nosave
#b3lyp/svp scf=(tight,noincore) Test 
#IOP(5/87=12) Density=Current Pop=(MK,readradii) iop(6/33=2) iop(6/42=6)

loop4.cluster8 

   -3  1 
C         67.52487       23.12084       65.21534
C         68.28210       22.92471       66.49725
O         68.73823       23.89824       67.07719
H         66.63724       23.76129       65.39564
H         68.18529       23.60486       64.46586
H         67.17968       22.15102       64.79663
N         68.46196       21.66912       66.99383
C         69.21405       21.36116       68.21053
C         68.54614       21.96785       69.43200
O         69.22525       22.44771       70.33120
C         70.69509       21.78105       68.07393
C         71.22251       21.36848       66.73424
O         71.55357       22.30443       65.82854
O         71.26177       20.18964       66.42298
H         68.05893       20.87301       66.47546
H         69.17703       20.25285       68.32205
H         71.30909       21.33720       68.88736
H         70.77363       22.88645       68.15150
N         67.18997       21.94882       69.52874
C         66.44342       22.50960       70.64694
C         65.93028       21.32651       71.45177
O         65.36258       20.42889       70.84319
C         65.25231       23.36341       70.09764
C         65.75891       24.49606       69.16668
C         64.41841       23.94760       71.25739
C         64.63948       25.23977       68.43050
H         66.64985       21.50092       68.77067
H         67.09309       23.16469       71.26434
H         64.59730       22.68984       69.49910
H         66.40384       24.06560       68.37509
H         66.36614       25.21778       69.75382
H         64.04346       23.14396       71.92396
H         65.03185       24.65451       71.85558
H         63.52342       24.48494       70.88773
H         64.07671       24.53631       67.77941
H         63.93573       25.73636       69.12625
H         65.08558       26.02886       67.78925
N         66.06956       21.20279       72.80626
C         66.56937       22.24499       73.70687
C         68.08501       22.20436       73.91445
O         68.61402       23.10014       74.55951
C         65.83036       22.17009       75.07093
C         66.05604       20.91315       75.88688
O         65.73304       20.90971       77.19348
O         66.51398       19.89939       75.38335
H         65.65796       20.35907       73.22504
H         66.30221       23.23873       73.29254
H         64.73399       22.28568       74.91741
H         66.15895       23.03335       75.68691
N         68.83971       21.18114       73.41864
C         70.28751       21.07893       73.56782
C         70.74736       21.03887       75.00723
O         70.09923       20.40779       75.83106
H         68.37203       20.42539       72.90184
H         70.78826       21.91253       73.02840
H         70.60726       20.12879       73.09556
N         71.86416       21.73322       75.38013
C         72.26987       21.89207       76.77054
C         71.82478       23.27734       77.25725
O         72.01889       23.59643       78.42121
C         73.79980       21.67930       76.89467
C         74.29768       21.53829       78.31297
O         75.49843       21.52936       78.53231
O         73.43879       21.33214       79.33106
H         72.38014       22.26673       74.66176
H         71.75367       21.13513       77.39939
H         74.31462       22.53156       76.39857
H         74.10349       20.74834       76.36672
N         71.16215       24.13244       76.41335
C         70.57533       25.39304       76.82250
C         71.54742       26.49867       77.14908
O         71.08329       27.61449       77.33784
H         70.98139       23.86011       75.43962
H         69.87559       25.22886       77.66723
H         69.97625       25.76407       75.95937
N         72.90051       26.30274       77.19694
C         73.85263       27.38741       77.40813
C         73.70708       28.37521       76.27291
O         73.56337       29.56772       76.49953
C         73.68999       28.05698       78.79340
C         73.99475       27.09592       79.94695
C         73.85027       27.75818       81.29812
N         74.10515       27.05274       82.42197
O         73.50687       28.92926       81.38581
H         73.29019       25.36774       77.01902
H         74.88121       26.96468       77.34463
H         72.66309       28.46075       78.91212
H         74.39769       28.91127       78.86504
H         75.04114       26.73603       79.84235
H         73.30841       26.22329       79.90138
H         74.39645       26.06635       82.36392
H         74.01241       27.49693       83.34742
N         73.73529       27.90809       74.99690
C         73.55318       28.76749       73.83779
C         74.88417       29.09451       73.20995
O         75.77184       28.25887       73.15779
C         72.57576       28.17941       72.76477
C         72.65248       26.64928       72.61071
C         71.12461       28.59166       73.02667
H         73.92599       26.90708       74.84847
H         73.15005       29.75474       74.15062
H         72.84020       28.63868       71.78424
H         72.07280       26.32861       71.71879
H         73.69929       26.30286       72.49184
H         72.20044       26.14881       73.49711
H         70.46884       28.19379       72.22118
H         70.77206       28.21588       74.00841
H         71.04165       29.70025       73.00491
N         75.04235       30.33368       72.66270
C         76.21711       30.74128       71.91359
C         75.80944       31.08591       70.49281
O         74.63994       31.26439       70.19880
C         76.88124       31.96158       72.59788
C         77.89955       31.54687       73.62593
N         79.03602       30.92475       73.22807
O         77.72922       31.81254       74.80617
H         74.26639       31.00848       72.72974
H         76.94002       29.90404       71.81901
H         76.09385       32.61657       73.03751
H         77.44475       32.57827       71.86654
H         79.20127       30.73293       72.22773
H         79.76287       30.66532       73.91024
N         76.78734       31.17686       69.55309
C         76.53610       31.50305       68.15591
C         77.50699       30.72437       67.29086
O         78.70720       30.81613       67.49587
C         76.76200       33.01069       67.95031
C         76.92582       33.40962       66.49351
C         75.86589       33.34232       65.56855
C         78.18949       33.83992       66.05586
C         76.07932       33.71235       64.23004
C         78.40034       34.19338       64.72578
C         77.34748       34.13329       63.80670
O         77.54899       34.47386       62.51717
H         77.76118       31.02700       69.85100
H         75.49277       31.26304       67.85501
H         77.69977       33.26721       68.48654
H         75.94196       33.58806       68.42979
H         74.88221       33.01221       65.87878
H         79.02024       33.88525       66.74803
H         75.26329       33.66979       63.51888
H         79.38576       34.51253       64.41132
H         78.42108       34.74952       62.19678
N         77.02857       29.99000       66.25002
C         77.90626       29.33374       65.28884
C         77.73300       29.91743       63.87535
O         78.70819       30.48310       63.39695
C         77.79388       27.79421       65.32591
C         78.26727       27.15013       66.64296
C         77.30098       27.34052       67.77679
O         76.15928       26.91763       67.68349
O         77.70271       27.92955       68.91874
H         76.01626       29.94845       66.12667
H         78.96818       29.53734       65.55504
H         78.47024       27.41026       64.52996
H         76.77130       27.44094       65.11806
H         79.27516       27.53548       66.91407
H         78.35944       26.05502       66.47811
N         76.60913       29.81614       63.08869
C         75.33626       29.18865       63.44360
C         74.15432       30.06873       63.03824
O         74.35170       31.11633       62.43664
C         75.23972       27.79953       62.78087
C         75.15849       27.80772       61.25340
C         75.14905       26.38939       60.76408
O         76.25795       25.63202       60.87662
O         74.13408       25.91033       60.28582
H         76.68641       30.18429       62.12716
H         75.26620       28.99874       64.51546
H         74.33579       27.27896       63.16812
H         76.11996       27.20076       63.08146
H         76.02033       28.33712       60.79474
H         74.22159       28.32180       60.94930
N         72.87962       29.65227       63.29342
C         71.70359       30.35487       62.81595
H         71.02928       30.58817       63.66562
H         71.94691       31.29719       62.28158
H         71.16253       29.69005       62.10858
H         72.73194       28.77435       63.81016
Ca        71.92280       21.57514       63.73646
O         73.60552       23.92142       64.03069
H         74.42295       24.01508       63.48154
H         73.52072       24.78612       64.50307
O         72.72485       18.73283       63.52021
H         72.57275       17.79764       63.80601
H         72.25348       18.80893       62.65249
O         74.32620       21.26005       62.11687
H         74.50158       20.92924       61.20129
H         74.87065       22.08258       62.19178
O         74.27160       21.24100       65.30537
H         75.24642       21.35736       65.18773
H         74.13624       21.19353       66.28456
O         71.14866       23.50270       61.98460
H         71.46947       24.43830       61.99356
H         70.68811       23.39072       61.11667

Ca 1.70



