%chk=loop1.cluster1.chk
%nprocshared=48
%mem=10GB
%nosave
#b3lyp/svp scf=(tight,noincore) Test 
#IOP(5/87=12) Density=Current Pop=(MK,readradii) iop(6/33=2) iop(6/42=6)

loop1.cluster1 

   0  1 
C         57.75094       38.77367       29.67767
C         58.70209       37.87235       28.96222
O         58.37729       36.72479       28.73086
H         56.79872       38.24176       29.88412
H         58.20574       39.09846       30.63614
H         57.54008       39.66250       29.04620
N         59.90253       38.34675       28.55286
C         60.87968       37.54133       27.82419
C         61.62364       36.66078       28.82799
O         62.64334       37.07585       29.36364
C         61.76847       38.54051       27.08070
C         62.87751       38.08760       26.20484
O         63.71314       38.92307       25.92098
O         62.92188       36.89603       25.57779
H         60.11009       39.34326       28.73539
H         60.37803       36.93959       27.03913
H         62.23640       39.19693       27.84077
H         61.12850       39.18637       26.43630
N         61.05557       35.49159       29.24481
C         61.53295       34.70945       30.38092
C         62.75201       33.83965       30.10549
O         63.34168       33.34783       31.05787
C         60.36841       33.88771       30.95682
C         59.30560       34.83111       31.54738
C         58.33149       34.07999       32.44772
C         57.26373       35.03336       33.00820
N         56.77652       34.56436       34.30369
H         60.15869       35.22403       28.83420
H         61.85575       35.42198       31.17323
H         60.76046       33.24074       31.76625
H         59.91115       33.23834       30.17336
H         58.77522       35.38393       30.74896
H         59.81326       35.57774       32.20113
H         58.94707       33.67356       33.27898
H         57.83974       33.22945       31.92554
H         56.43152       35.12123       32.27252
H         57.68501       36.05128       33.16331
H         56.00697       35.19186       34.62928
H         56.43462       33.57909       34.24646
H         57.55986       34.62461       34.99727
N         63.23389       33.67997       28.84538
C         64.58041       33.16692       28.56780
C         65.48134       34.32775       28.14559
O         66.69455       34.17401       28.20632
C         64.58118       32.02480       27.51827
C         63.60531       32.31179       26.42344
O         62.62885       31.59921       26.26504
O         63.76143       33.42444       25.70086
H         62.68439       34.06159       28.06590
H         65.04896       32.76765       29.49703
H         64.28125       31.07289       27.99977
H         65.60406       31.89204       27.09659
N         64.96686       35.54642       27.78921
C         65.79658       36.71294       27.56391
C         66.38037       36.81499       26.16482
O         67.18731       37.70367       25.94326
H         63.95488       35.69044       27.75730
H         66.59197       36.74120       28.33802
H         65.18046       37.62096       27.73493
N         66.00600       35.96528       25.16135
C         66.59671       36.01046       23.81470
C         66.36942       37.32155       23.04118
O         66.97642       37.50000       21.99292
C         66.14363       34.77239       22.99399
C         64.65599       34.56648       22.87646
O         63.89509       35.50783       22.94665
O         64.15290       33.31760       22.86277
H         65.31244       35.23934       25.36814
H         67.69591       35.91846       23.94165
H         66.53565       33.87126       23.51134
H         66.58996       34.78345       21.97827
N         65.50830       38.27184       23.49134
C         65.27771       39.56336       22.85345
C         63.90461       39.65634       22.20946
O         63.54210       40.72356       21.74375
H         64.96014       38.04963       24.31499
H         66.03687       39.78926       22.07505
H         65.35797       40.34926       23.63840
N         63.11212       38.55082       22.10919
C         61.79131       38.54885       21.48739
C         60.75614       37.99434       22.45245
O         61.09957       37.37821       23.44632
C         61.79076       37.76340       20.13285
C         62.57370       38.50474       19.05335
O         62.26830       36.44731       20.22500
H         63.45983       37.67356       22.47834
H         61.48029       39.58937       21.26622
H         60.74386       37.68742       19.76908
H         63.05983       36.41355       20.81191
H         63.62437       38.66956       19.36847
H         62.56870       37.91521       18.11095
H         62.08544       39.48246       18.85639
N         59.43890       38.23625       22.20243
C         58.34979       37.75669       23.04620
C         57.45399       36.88559       22.18411
O         57.10218       37.26760       21.08032
C         57.54729       38.94348       23.65569
C         58.44167       39.75314       24.63124
C         56.30284       38.42814       24.42081
C         57.78446       41.04514       25.12379
H         59.19395       38.79552       21.37487
H         58.72742       37.16176       23.90392
H         57.20940       39.59014       22.81729
H         59.39052       40.04113       24.13292
H         58.69772       39.11669       25.50936
H         56.61092       37.83044       25.30392
H         55.65710       39.25712       24.76416
H         55.65555       37.80371       23.77796
H         57.59894       41.72195       24.26345
H         56.82913       40.85960       25.65296
H         58.46148       41.55299       25.84124
N         56.98699       35.72057       22.69906
C         56.10880       34.80742       21.99084
C         54.69650       34.87760       22.53907
O         54.43188       35.57037       23.50470
C         56.66753       33.36131       22.13178
C         58.01517       33.21478       21.42725
O         56.76620       32.98196       23.48301
H         57.23765       35.48838       23.65115
H         56.03527       35.08767       20.92007
H         55.98365       32.63103       21.65543
H         57.68104       33.16593       23.81442
H         58.41837       32.19523       21.60794
H         57.88543       33.37545       20.33974
H         58.73068       33.96004       21.82779
N         53.73181       34.14932       21.91790
C         52.35929       34.01549       22.40399
C         52.38564       33.37658       23.77890
O         51.69585       33.83221       24.68341
C         51.55597       33.13709       21.40291
C         51.40818       33.87298       20.04900
O         52.18257       31.87816       21.25883
H         54.00811       33.61780       21.08317
H         51.85420       35.00512       22.46841
H         50.53023       32.97090       21.79732
H         52.18833       31.60470       20.30477
H         50.87132       34.83430       20.19143
H         52.39409       34.08807       19.58545
H         50.82509       33.25297       19.33642
N         53.22214       32.33226       24.00758
C         53.38232       31.67315       25.29311
C         53.87779       32.64140       26.36985
O         53.35291       32.63014       27.47225
C         54.31098       30.44408       25.13330
C         53.72582       29.45825       24.08622
C         54.26455       28.03815       24.25512
C         53.69527       27.09249       23.18376
N         54.21263       25.73675       23.36598
H         53.79877       32.00486       23.21850
H         52.40332       31.26424       25.62900
H         54.36490       29.94543       26.12328
H         55.34682       30.73099       24.83393
H         53.94520       29.82371       23.05739
H         52.62238       29.39818       24.20150
H         53.96051       27.66735       25.25908
H         55.37193       28.04668       24.18797
H         53.98510       27.46172       22.17510
H         52.58198       27.07013       23.23605
H         53.88673       25.13195       22.57783
H         55.25835       25.75029       23.36948
H         53.86295       25.33869       24.26792
N         54.87670       33.52436       26.09809
C         55.38268       34.50154       27.06775
C         54.33754       35.53696       27.44924
O         54.36426       35.99975       28.58208
C         56.65909       35.15819       26.51616
C         57.81055       34.12819       26.57328
C         59.10329       34.55061       25.94964
O         59.17377       34.83669       24.76899
O         60.22501       34.48081       26.67312
H         55.27738       33.51629       25.15733
H         55.67115       33.97888       28.00543
H         56.93399       36.05566       27.08719
H         56.42734       35.51083       25.50671
H         57.50437       33.18274       26.08926
H         58.01584       33.90514       27.64427
N         53.33879       35.88679       26.59111
C         52.23511       36.74429       26.97466
H         51.30294       36.14222       26.93501
H         52.33899       37.14633       28.00446
H         52.14140       37.59420       26.26744
H         53.32457       35.49102       25.64578
Ca        62.19104       34.85014       25.03132
O         61.21703       33.96641       21.98065
H         61.55041       34.56918       21.28265
H         61.04022       33.13019       21.48449
O         60.87069       32.27433       24.14378
H         60.08634       31.70847       23.93934
H         61.64667       31.67107       24.03038

Ca 1.70



