%chk=loop2.cluster109.chk
%nprocshared=48
%mem=10GB
%nosave
#b3lyp/svp scf=(tight,noincore) Test 
#IOP(5/87=12) Density=Current Pop=(MK,readradii) iop(6/33=2) iop(6/42=6)

loop2.cluster109 

   -2  1 
C         86.11828       82.03670       39.33327
C         87.30164       81.69249       40.18680
O         87.97306       82.59573       40.66696
H         85.36874       82.59566       39.93069
H         86.45540       82.66334       38.48171
H         85.63734       81.12238       38.92601
N         87.62879       80.38673       40.40855
C         88.82902       79.97855       41.13718
C         88.60803       79.97659       42.66296
O         89.24197       79.19545       43.36037
C         89.23491       78.57604       40.60933
C         90.65822       78.16977       40.88500
O         91.05132       77.07642       40.51063
O         91.52304       79.01959       41.47219
H         87.06498       79.66017       39.94019
H         89.65297       80.67467       40.86489
H         89.14273       78.57075       39.50055
H         88.52750       77.81794       41.01300
N         87.70106       80.81934       43.24339
C         87.39333       80.82283       44.67345
C         85.91638       81.21307       44.87119
O         85.29517       81.66005       43.91605
C         88.38438       81.77317       45.36877
H         87.19461       81.47787       42.65004
H         87.51005       79.78593       45.06042
H         88.33193       81.77508       46.46861
H         89.42320       81.47462       45.11209
H         88.22012       82.81387       45.02173
N         85.22638       81.01889       46.02972
C         85.76840       80.51701       47.28356
C         85.60374       79.03993       47.38856
O         85.09775       78.42812       46.45975
C         85.10201       81.26394       48.43680
C         85.31349       82.72517       48.21719
O         86.56240       83.22531       48.17510
O         84.36239       83.44696       47.97983
H         84.22251       81.23755       46.01353
H         86.84981       80.66847       47.33988
H         85.51631       80.96584       49.42241
H         84.01575       81.03961       48.42765
N         86.13488       78.37724       48.45811
C         86.26303       76.93441       48.47806
C         87.09409       76.52645       47.27511
O         87.92545       77.31739       46.84926
H         86.56525       78.91320       49.22572
H         85.26433       76.46689       48.49816
H         86.79191       76.62777       49.40623
N         86.95753       75.32894       46.64526
C         86.13175       74.22945       47.14000
C         84.61546       74.48855       46.99439
O         83.82544       73.73400       47.53364
C         86.55769       72.92928       46.39552
C         86.63575       71.67490       47.24526
N         85.58281       71.20935       47.95109
O         87.69504       71.06499       47.29339
H         87.57145       75.16955       45.83099
H         86.40260       74.11698       48.21380
H         87.60750       73.04907       46.04044
H         85.95041       72.80167       45.47441
H         84.68279       71.68912       47.95665
H         85.68377       70.35623       48.51879
N         84.13793       75.54240       46.27222
C         82.71297       75.82247       46.13535
C         82.06329       76.13892       47.46533
O         81.06524       75.52509       47.81859
H         84.79507       76.15952       45.78190
H         82.19797       74.97506       45.63494
H         82.59504       76.72058       45.48710
N         82.56444       77.14380       48.22480
C         81.96843       77.64720       49.44862
C         81.50811       79.03091       49.08408
O         82.10710       79.99858       49.52450
C         83.03556       77.64515       50.58450
C         82.48097       78.16525       51.92376
O         83.51491       76.33987       50.76952
H         83.38538       77.64387       47.87488
H         81.09312       77.04196       49.77685
H         83.88095       78.30332       50.26784
H         84.38469       76.42233       51.24422
H         82.12646       79.21368       51.85218
H         81.64083       77.52847       52.27077
H         83.28236       78.14302       52.69370
N         80.48722       79.20667       48.20148
C         80.13572       80.51676       47.66868
C         78.86209       81.06022       48.26029
O         78.01723       80.30367       48.73074
C         80.09845       80.53622       46.11136
C         81.53450       80.46003       45.55556
C         79.19597       79.42708       45.53665
C         81.62400       80.51036       44.03067
H         79.95420       78.37587       47.89583
H         80.90214       81.25874       47.98711
H         79.67741       81.51667       45.79491
H         82.04865       79.54164       45.91401
H         82.06870       81.34741       45.94799
H         79.65287       78.42537       45.68487
H         78.19463       79.44666       46.01353
H         79.04825       79.57258       44.44718
H         81.10584       81.40865       43.63613
H         82.69150       80.55312       43.72868
H         81.18173       79.59868       43.57973
N         78.71659       82.41259       48.35344
C         77.57446       83.06302       48.97736
C         76.34913       82.91540       48.09778
O         76.43539       82.31353       47.03742
C         77.86167       84.56783       49.25869
C         79.20450       84.75594       49.90785
O         79.52199       84.07161       50.86734
O         80.13347       85.51816       49.30970
H         79.49204       83.00228       48.01632
H         77.40330       82.58030       49.96655
H         77.08313       84.97247       49.93688
H         77.84552       85.14943       48.31185
N         75.16400       83.45879       48.48164
C         73.93178       83.29697       47.72481
C         74.03957       83.87234       46.30655
O         73.97013       83.10252       45.36003
C         73.50740       81.80208       47.75769
C         72.01789       81.68898       47.54700
C         71.45264       81.69366       46.26104
C         71.17271       81.64571       48.67006
C         70.06508       81.67610       46.10536
C         69.78749       81.63095       48.50881
C         69.23318       81.65251       47.22755
H         75.11445       83.97021       49.37456
H         73.13917       83.84520       48.27934
H         73.71645       81.43279       48.78653
H         74.09575       81.13852       47.08504
H         72.07348       81.71337       45.38005
H         71.58938       81.65086       49.67065
H         69.63538       81.69091       45.11285
H         69.14500       81.61633       49.37907
H         68.15919       81.65325       47.10441
N         74.19532       85.21245       46.05187
C         74.26477       85.74192       44.69535
C         75.55723       85.33266       44.00614
O         75.60561       85.25819       42.78660
C         74.24173       87.26344       44.90622
C         73.57618       87.41059       46.27152
C         74.18067       86.24987       47.05358
H         73.35190       85.40918       44.14941
H         75.28107       87.64142       45.02680
H         73.75344       87.82670       44.07943
H         73.71571       88.40779       46.74105
H         72.48921       87.20805       46.15312
H         75.23455       86.49082       47.32300
H         73.58822       86.02224       47.96016
N         76.66633       85.09372       44.76868
C         77.96390       84.68790       44.23988
C         77.87092       83.32953       43.55515
O         78.70657       83.01906       42.71783
C         78.95392       84.65458       45.42730
C         80.43214       84.58087       45.04222
C         81.29287       84.79251       46.25617
O         81.73221       83.77292       47.01379
O         81.70066       85.91547       46.50625
H         76.58413       85.21244       45.78688
H         78.28412       85.46554       43.50999
H         78.66615       83.82920       46.10751
H         78.82516       85.61239       45.98335
H         80.61262       85.44432       44.36700
H         80.70413       83.64879       44.51383
N         76.84089       82.48498       43.85311
C         76.59668       81.22805       43.18624
H         75.60467       81.29324       42.68928
H         77.36374       80.98948       42.42381
H         76.55383       80.41315       43.93931
H         76.17458       82.75117       44.58078
Ca        82.03702       84.40415       49.13712
O         84.92464       85.47624       49.72356
H         85.79027       85.00166       49.68788
H         85.14416       86.33572       50.15652
O         82.77061       82.63745       51.20904
H         82.17261       82.71933       51.99129
H         82.29185       82.01005       50.61998
O         82.65364       85.63963       51.81502
H         82.70183       85.60693       52.80277
H         82.00643       86.36268       51.61975
O         82.64710       87.35102       49.13948
H         83.27160       88.11804       49.11505
H         81.74617       87.75997       49.16630

Ca 1.70



