%chk=loop1.cluster27.chk
%nprocshared=48
%mem=10GB
%nosave
#b3lyp/svp scf=(tight,noincore) Test 
#IOP(5/87=12) Density=Current Pop=(MK,readradii) iop(6/33=2) iop(6/42=6)

loop1.cluster27 

   0  1 
C         48.49315       38.00273       42.61454
C         47.94450       37.85469       41.23675
O         46.73079       37.92093       41.07210
H         49.30607       38.75729       42.59929
H         47.69544       38.36048       43.30029
H         48.88401       37.03060       42.97896
N         48.78351       37.69750       40.17224
C         48.29018       37.62881       38.80894
C         48.66827       36.29730       38.17127
O         49.58121       35.61942       38.63617
C         48.76579       38.88456       38.02433
C         48.02230       39.14467       36.73835
O         47.09711       38.44278       36.39268
O         48.31643       40.18230       35.95957
H         49.80469       37.67599       40.33438
H         47.17922       37.66793       38.82806
H         49.86155       38.81210       37.84250
H         48.57802       39.78470       38.64660
N         47.90370       35.80887       37.16773
C         48.02248       34.50793       36.55483
C         49.38889       34.17999       35.93507
O         49.93981       33.17383       36.35325
C         46.83662       34.34912       35.56836
C         46.90905       33.09982       34.70457
C         45.69205       32.97900       33.78013
C         45.94038       31.83166       32.79494
N         44.76697       31.54771       31.97455
H         47.09093       36.35683       36.88516
H         47.86577       33.74531       37.35361
H         46.79443       35.22607       34.88736
H         45.89540       34.34381       36.16843
H         46.98058       32.19457       35.34527
H         47.82127       33.17694       34.07866
H         45.53272       33.92028       33.20539
H         44.78588       32.78772       34.39740
H         46.21091       30.91513       33.36172
H         46.79657       32.10679       32.13646
H         44.51489       32.37665       31.38973
H         44.99275       30.74177       31.34727
H         43.96298       31.27960       32.58711
N         49.99165       34.84979       34.90404
C         49.62810       36.12975       34.31343
C         50.90836       36.96031       34.22553
O         51.91326       36.45311       33.73243
C         49.07503       35.91752       32.88303
C         48.62426       37.19106       32.20130
O         48.84443       38.39419       32.76053
O         48.16261       37.13462       31.07519
H         50.83064       34.39260       34.50661
H         48.83443       36.64275       34.89758
H         48.19548       35.24553       32.92861
H         49.84705       35.43546       32.24340
N         50.94782       38.25240       34.62713
C         52.14156       39.06073       34.46048
C         51.86407       40.45880       34.90776
O         51.75946       40.67835       36.10922
H         50.08889       38.68717       34.99351
H         52.43907       39.05683       33.38760
H         52.98707       38.64219       35.05249
N         51.70311       41.46612       34.00034
C         51.39431       42.82810       34.41276
C         52.58565       43.71621       34.12652
O         53.45144       43.31023       33.35850
C         50.14151       43.35883       33.68029
C         48.99224       42.41329       33.72731
O         48.06429       42.52936       34.69603
O         48.78469       41.68592       32.76969
H         51.80231       41.26077       32.99090
H         51.20999       42.83401       35.50441
H         50.37180       43.53347       32.60657
H         49.80871       44.32465       34.09984
N         52.73132       44.95420       34.66885
C         51.78264       45.59135       35.57433
C         51.10613       46.74345       34.87867
O         50.37683       47.48824       35.52221
H         53.55232       45.51128       34.38338
H         52.35608       45.96258       36.45071
H         51.00139       44.91475       35.95875
N         51.32216       46.96167       33.54959
C         50.86357       48.11251       32.81828
C         51.48213       49.34131       33.45215
O         50.77992       50.25936       33.83144
C         49.33068       48.13740       32.57892
C         48.74600       46.76316       32.27121
O         49.08254       48.90249       31.43244
H         51.91900       46.31925       33.01219
H         51.30936       48.02615       31.80190
H         48.78690       48.51781       33.47773
H         48.86124       49.80175       31.72458
H         47.65850       46.86774       32.06346
H         49.23957       46.32584       31.37764
H         48.85762       46.08811       33.13662
N         52.84053       49.36300       33.62086
C         53.66090       50.50112       34.01940
C         53.79006       51.46473       32.84696
O         54.90219       51.67887       32.38527
C         53.31900       51.18870       35.37793
C         53.15890       50.22159       36.58550
C         54.43146       52.22248       35.69642
C         54.28904       49.20956       36.79839
H         53.35988       48.50911       33.37030
H         54.68624       50.08865       34.16560
H         52.36352       51.75293       35.31047
H         52.20636       49.65446       36.51579
H         53.07977       50.85565       37.49726
H         55.44137       51.75841       35.65671
H         54.41121       53.05576       34.96336
H         54.30369       52.66855       36.70565
H         54.23869       48.82293       37.83993
H         54.15922       48.34793       36.10977
H         55.29122       49.65677       36.64780
N         52.69239       52.04770       32.28722
C         52.75307       52.93541       31.13848
C         52.16513       54.27336       31.51842
O         51.67877       54.43788       32.62951
C         51.98749       52.32692       29.92566
C         50.48906       52.10953       30.18011
O         52.56141       51.09923       29.56036
H         51.77047       51.87383       32.68169
H         53.80694       53.09878       30.82300
H         52.05023       53.02838       29.06204
H         53.39626       51.30907       29.06567
H         50.00135       51.74130       29.25195
H         50.33309       51.35581       30.97332
H         49.98658       53.05461       30.47603
N         52.18081       55.28970       30.62124
C         51.57513       56.57854       30.91542
C         50.07164       56.51725       30.73918
O         49.59515       55.92773       29.77818
C         52.17873       57.71165       30.06745
C         53.68166       57.87583       30.34924
O         51.91679       57.54562       28.69510
H         52.64823       55.14037       29.71645
H         51.81472       56.86065       31.96584
H         51.68993       58.65750       30.38944
H         52.52895       56.85240       28.33916
H         54.24790       56.96667       30.05550
H         54.07767       58.74497       29.78713
H         53.84882       58.05336       31.43487
N         49.26450       57.12174       31.65615
C         47.80869       57.11743       31.59637
C         47.27355       55.70915       31.53352
O         46.60420       55.33321       30.57890
C         47.22735       58.03920       30.51358
C         47.63978       59.50185       30.74076
C         46.80737       60.42896       29.85101
C         47.21930       61.89605       30.01438
N         46.32930       62.76773       29.24714
H         49.70466       57.60297       32.45361
H         47.43072       57.54518       32.55222
H         46.11854       57.97943       30.61642
H         47.50296       57.71078       29.48949
H         48.72618       59.61521       30.53738
H         47.44613       59.78957       31.80014
H         45.73999       60.32225       30.15031
H         46.91215       60.13287       28.78590
H         48.26804       62.03091       29.66562
H         47.16664       62.18156       31.08823
H         46.57529       63.76554       29.43788
H         46.43145       62.57785       28.22387
H         45.33589       62.60898       29.53555
N         47.47287       54.90536       32.60513
C         46.86732       53.59616       32.74643
C         47.83178       52.53749       33.24025
O         47.83766       51.50077       32.61538
C         45.64372       53.65653       33.67051
C         44.49427       54.44400       33.03156
C         43.34137       54.55442       33.98238
O         42.91059       55.65289       34.29389
O         42.78215       53.44515       34.50264
H         47.96013       55.31673       33.40292
H         46.47491       53.23621       31.76372
H         45.91054       54.10055       34.64458
H         45.27640       52.61871       33.84291
H         44.16109       53.91435       32.11112
H         44.82826       55.46454       32.74931
N         48.60421       52.61101       34.37048
C         48.78990       53.76984       35.21454
H         49.40485       54.53135       34.69346
H         47.83199       54.17857       35.57409
H         49.37959       53.47669       36.10784
H         49.11789       51.76502       34.64846
Ca        47.47820       39.74049       33.92765
O         45.37734       42.10306       33.38935
H         44.67153       42.44744       33.99220
H         45.61420       42.87527       32.81725
O         44.84330       38.54107       34.17808
H         44.01776       38.82440       34.64487
H         44.55052       37.83275       33.55193
O         45.47274       40.98097       36.13334
H         44.64549       40.69562       36.59499
H         45.81346       41.74033       36.66920
O         46.28795       39.94908       31.18308
H         46.24534       40.39817       30.30359
H         46.98588       39.26260       31.06130

Ca 1.70



