%chk=loop3.cluster166.chk
%nprocshared=48
%mem=10GB
%nosave
#b3lyp/svp scf=(tight,noincore) Test 
#IOP(5/87=12) Density=Current Pop=(MK,readradii) iop(6/33=2) iop(6/42=6)

loop3.cluster166 

   0  1 
C         -0.44230      -22.41911       34.18656
C         -1.11489      -23.71541       33.87971
O         -1.53708      -24.41218       34.79240
H          0.57300      -22.40575       33.74037
H         -1.04764      -21.59800       33.74576
H         -0.37267      -22.26574       35.28280
N         -1.29145      -24.08526       32.58587
C         -2.04265      -25.27136       32.22399
C         -1.31264      -26.52233       32.69399
O         -0.18230      -26.75731       32.28584
C         -2.34064      -25.22641       30.72064
C         -3.22696      -26.32464       30.27118
O         -3.66602      -27.25569       31.13064
O         -3.58526      -26.36387       29.10634
H         -0.93028      -23.46833       31.84010
H         -3.03081      -25.20909       32.72837
H         -1.40868      -25.23345       30.11971
H         -2.89307      -24.28018       30.51727
N         -1.90636      -27.34203       33.61364
C         -1.20928      -28.43904       34.27948
C         -0.66339      -29.49473       33.32187
O          0.22162      -30.24700       33.70430
C         -2.12426      -29.07199       35.36330
C         -3.25712      -29.95531       34.78748
C         -4.09698      -30.61049       35.90794
C         -4.72698      -31.96254       35.49932
N         -5.67279      -31.87357       34.39291
H         -2.86427      -27.11615       33.91927
H         -0.33828      -27.97459       34.79459
H         -2.54981      -28.26477       36.00164
H         -1.49458      -29.71749       36.01189
H         -2.76159      -30.76183       34.21152
H         -3.91957      -29.38691       34.09477
H         -4.84937      -29.88782       36.29366
H         -3.41816      -30.87539       36.74525
H         -5.24742      -32.41042       36.37292
H         -3.89641      -32.64689       35.21405
H         -5.84260      -32.83025       34.00231
H         -6.57447      -31.45328       34.70345
H         -5.27904      -31.28507       33.64714
N         -1.21714      -29.64917       32.08700
C         -0.77234      -30.64090       31.10704
C         -0.55250      -30.03067       29.71260
O         -0.05707      -30.73104       28.84006
C         -1.81386      -31.77298       31.07955
C         -3.18620      -31.24143       30.82108
O         -3.49702      -30.83403       29.72712
O         -4.05779      -31.13970       31.82111
H         -2.05358      -29.09656       31.87008
H          0.19353      -31.09211       31.42748
H         -1.81964      -32.23075       32.09290
H         -1.57185      -32.57291       30.34784
N         -0.90275      -28.73866       29.42764
C         -0.68477      -28.10099       28.13607
C         -1.88277      -28.18087       27.20439
O         -2.03492      -27.30982       26.35955
H         -1.31643      -28.15308       30.15705
H          0.27746      -28.38569       27.66394
H         -0.57986      -27.01652       28.36569
N         -2.76398      -29.21366       27.28537
C         -3.99895      -29.28431       26.50956
C         -5.03085      -28.30160       27.13565
O         -5.78998      -28.99146       28.09843
C         -4.49124      -30.76438       26.48787
C         -5.87591      -31.01016       25.93453
N         -6.18289      -30.73790       24.65024
O         -6.72963      -31.49366       26.66134
H         -2.53060      -29.98454       27.90837
H         -3.77503      -28.98966       25.46182
H         -4.49998      -31.14681       27.52825
H         -3.75582      -31.37557       25.92387
H         -5.47559      -30.35844       24.00850
H         -7.13549      -30.92874       24.30226
N         -5.91015      -27.70727       26.10507
C         -6.70432      -26.57192       26.61655
C         -7.95332      -27.00696       27.36292
O         -8.66760      -26.15861       27.87686
H         -5.29549      -27.31728       25.35411
H         -7.05425      -25.95663       25.75793
H         -6.06545      -25.90713       27.23972
N         -8.30078      -28.32016       27.41771
C         -9.47474      -28.82489       28.10383
C         -9.37734      -28.66631       29.61198
O         -8.38094      -29.05632       30.20152
C         -9.60486      -30.32516       27.79555
C        -10.87017      -30.92608       28.33293
C        -10.83930      -31.71266       29.49310
C        -12.08289      -30.73019       27.65807
C        -12.00915      -32.30099       29.97397
C        -13.24913      -31.34103       28.12523
C        -13.21404      -32.13144       29.28521
O        -14.32819      -32.73964       29.73728
H         -7.73604      -29.00052       26.89776
H        -10.37186      -28.31173       27.70154
H         -8.73359      -30.85149       28.22660
H         -9.57106      -30.50248       26.69886
H         -9.90890      -31.86385       30.02479
H        -12.11493      -30.13014       26.75622
H        -11.97564      -32.90184       30.87328
H        -14.17537      -31.20784       27.58158
H        -15.16929      -32.67588       29.26355
N        -10.45928      -28.19965       30.29729
C        -10.57956      -28.18560       31.75081
C        -10.62047      -29.60115       32.31354
O         -9.71197      -30.39260       32.09708
C         -9.55003      -27.26638       32.46141
C         -9.77508      -27.20920       34.00303
C         -9.59640      -25.85659       31.84993
C        -11.09208      -26.56662       34.46340
H        -11.27950      -27.89315       29.75700
H        -11.56983      -27.72795       31.95991
H         -8.52935      -27.66936       32.31252
H         -8.94611      -26.62734       34.46036
H         -9.71731      -28.23640       34.42343
H         -9.25573      -25.88814       30.79615
H        -10.63278      -25.45617       31.85442
H         -8.93776      -25.16115       32.41008
H        -11.14720      -25.50561       34.14611
H        -11.98056      -27.10097       34.07958
H        -11.14031      -26.59365       35.57184
N        -11.65376      -29.95791       33.11307
C        -11.79246      -31.25058       33.76539
C        -13.24506      -31.73114       33.75696
O        -13.47155      -32.92494       33.66567
C        -11.26890      -31.14960       35.20292
O        -11.95910      -30.15641       35.90696
H        -12.30177      -29.20605       33.36562
H        -11.15948      -32.02417       33.26912
H        -10.18633      -30.88820       35.16165
H        -11.38406      -32.13363       35.71207
H        -11.54312      -30.12340       36.80694
N        -14.27570      -30.83746       33.91179
C        -15.68145      -31.20198       33.98599
C        -15.95524      -32.10941       35.17772
O        -16.42297      -33.22455       34.97763
C        -16.16224      -31.76355       32.64293
H        -14.08048      -29.84000       34.00168
H        -16.27205      -30.26911       34.14277
H        -15.66268      -32.71995       32.39135
H        -17.26093      -31.92649       32.67778
H        -15.95096      -31.02555       31.83852
N        -15.75080      -31.70988       36.47040
C        -15.30335      -30.37081       36.85202
C        -16.51851      -29.51999       37.19357
O        -17.54005      -30.09481       37.53707
C        -14.34143      -30.48179       38.04491
H        -16.03946      -32.34984       37.22528
H        -14.75711      -29.91104       36.03416
H        -14.85550      -30.93885       38.91765
H        -13.47745      -31.12816       37.78706
H        -13.94648      -29.49335       38.34606
N        -16.52188      -28.14897       37.17381
C        -15.39670      -27.29013       36.80655
C        -15.82830      -26.16276       35.87171
O        -15.15477      -25.90803       34.88281
C        -14.80127      -26.69310       38.09076
C        -13.34622      -26.24306       37.88283
C        -12.71193      -25.91572       39.20165
O        -13.18468      -24.90132       39.94856
O        -11.77836      -26.58743       39.61320
H        -17.37933      -27.69561       37.51684
H        -14.58849      -27.87175       36.32655
H        -14.77448      -27.49678       38.85253
H        -15.44207      -25.87791       38.49511
H        -13.28140      -25.37629       37.19082
H        -12.77498      -27.08815       37.43471
N        -16.93651      -25.41570       36.16142
C        -17.33142      -24.26329       35.38306
H        -18.28518      -23.85796       35.78891
H        -16.55554      -23.47519       35.47540
H        -17.48548      -24.53020       34.31723
H        -17.52183      -25.65807       36.97020
Ca        -5.07041      -28.62756       30.18308
O         -6.38828      -31.31227       30.00122
H         -7.09342      -31.78397       30.50759
H         -6.75286      -31.23842       29.08883
O         -6.80730      -29.50298       32.79341
H         -7.34298      -30.31087       32.60000
H         -7.03948      -29.27130       33.72761
O         -6.81574      -26.16502       29.99959
H         -7.01132      -25.23617       29.72393
H         -6.03468      -26.41606       29.45463
O         -5.74769      -26.82307       32.77243
H         -5.14430      -26.22130       33.27295
H         -6.43732      -26.22044       32.40324

Ca 1.70



