%chk=loop1.cluster31.chk
%nprocshared=48
%mem=10GB
%nosave
#b3lyp/svp scf=(tight,noincore) Test 
#IOP(5/87=12) Density=Current Pop=(MK,readradii) iop(6/33=2) iop(6/42=6)

loop1.cluster31 

   0  1 
C         46.91095       43.29928        7.61502
C         47.11991       43.29240        6.13321
O         47.82284       44.14270        5.60345
H         45.82035       43.28686        7.83139
H         47.36470       42.37937        8.04253
H         47.36853       44.19081        8.08762
N         46.52651       42.32131        5.39575
C         46.69500       42.17356        3.95635
C         45.97729       43.24259        3.12041
O         45.92166       43.08385        1.91074
C         46.23983       40.75474        3.52573
C         44.77873       40.48002        3.69961
O         44.25668       40.34516        4.93389
O         44.07281       40.31037        2.71742
H         45.97250       41.62200        5.90833
H         47.77763       42.20891        3.71850
H         46.80349       39.98490        4.09525
H         46.48676       40.61511        2.45808
N         45.36179       44.32421        3.69292
C         44.51519       45.23640        2.93448
C         44.86704       46.71765        3.20839
O         44.20510       47.29590        4.06027
C         43.05172       44.97778        3.39795
C         42.58546       43.52014        3.21314
C         41.11487       43.36483        3.63919
C         40.56328       41.93304        3.49972
N         41.19807       40.99802        4.42550
H         45.39252       44.45683        4.70821
H         44.51491       45.00840        1.85717
H         42.37711       45.65348        2.82693
H         42.95810       45.21967        4.48161
H         43.22040       42.86014        3.83810
H         42.69213       43.22783        2.14679
H         40.49803       44.02704        2.99518
H         40.98763       43.69258        4.69466
H         40.68406       41.56947        2.45395
H         39.47775       41.96235        3.73042
H         41.25210       41.39303        5.39262
H         40.66419       40.09972        4.44797
H         42.14513       40.78570        4.07610
N         45.83675       47.45869        2.57262
C         46.79859       47.08329        1.53466
C         46.14022       46.78104        0.17472
O         44.96060       46.47231        0.16038
C         47.78129       46.03436        2.09270
C         49.19961       46.31547        1.72141
O         49.78010       47.47453        2.08585
O         49.84981       45.48107        1.13472
H         45.92166       48.43787        2.89463
H         47.37189       48.02532        1.38209
H         47.46653       45.01530        1.80596
H         47.79423       46.09326        3.20288
N         46.76231       46.94858       -1.03463
C         48.11942       47.42966       -1.22258
C         48.39169       47.65905       -2.69800
O         47.90022       48.65039       -3.21920
H         46.20412       46.75395       -1.88259
H         48.83519       46.72045       -0.79536
H         48.25174       48.41298       -0.71670
N         49.14337       46.81963       -3.47368
C         49.71173       45.54074       -3.04907
C         48.62884       44.55401       -2.62973
O         47.74466       44.22511       -3.41055
C         50.59614       44.97198       -4.19132
C         50.99553       43.52177       -4.05897
O         51.59459       43.06667       -2.94978
O         50.78094       42.74941       -4.97966
H         49.29263       47.10486       -4.45469
H         50.39756       45.71082       -2.18973
H         51.51307       45.60055       -4.23457
H         50.06592       45.06683       -5.16176
N         48.69713       44.01214       -1.38469
C         47.79469       42.99368       -0.87085
C         48.41059       42.04755        0.17577
O         47.79506       41.03458        0.45200
H         49.47236       44.32987       -0.81757
H         47.43855       42.36467       -1.71418
H         46.89661       43.48145       -0.43406
N         49.59405       42.32108        0.81861
C         50.14350       41.47638        1.87473
C         50.88733       42.31998        2.91617
O         51.23098       43.46389        2.67876
C         51.01460       40.35252        1.25559
C         51.56443       39.34060        2.27233
O         52.07909       40.92195        0.53867
H         50.07703       43.18505        0.64507
H         49.29035       41.02606        2.42165
H         50.34988       39.79890        0.55855
H         52.52014       40.19581        0.02706
H         50.76579       38.95709        2.93726
H         52.03305       38.48958        1.73887
H         52.35668       39.77682        2.88964
N         51.07159       41.79171        4.15146
C         51.68280       42.52423        5.26009
C         53.16236       42.84057        5.02875
O         53.67075       43.73982        5.67148
C         51.48566       41.67878        6.53783
C         51.71807       42.51074        7.80995
C         52.35815       40.40196        6.48134
C         51.39952       41.71528        9.07028
H         50.67936       40.86160        4.32759
H         51.11027       43.47664        5.35952
H         50.41228       41.37750        6.55336
H         51.03287       43.38750        7.77678
H         52.76207       42.88119        7.86615
H         53.43409       40.66178        6.56836
H         52.08678       39.69694        7.28771
H         52.22235       39.85287        5.52640
H         52.12643       40.88762        9.19913
H         51.47061       42.38068        9.95276
H         50.37066       41.29853        9.00999
N         53.90207       42.08593        4.16199
C         55.25647       42.31122        3.65764
C         56.33286       42.82710        4.62060
O         57.27694       42.08824        4.86186
C         55.15741       43.04287        2.30592
C         56.50807       43.17161        1.58966
O         54.52659       44.28385        2.45000
H         53.41544       41.31773        3.70589
H         55.62319       41.29469        3.37580
H         54.50447       42.42982        1.64446
H         55.18825       44.90898        2.82678
H         56.95744       42.16834        1.43233
H         56.35914       43.65660        0.60252
H         57.21189       43.78687        2.18729
N         56.30430       44.08600        5.15275
C         57.33944       44.62733        6.03008
C         58.60450       45.01357        5.27907
O         58.96606       44.38534        4.29412
C         57.60845       43.78607        7.30659
C         56.41235       43.83633        8.25783
O         58.72658       44.29042        7.99063
H         55.53042       44.71611        4.92268
H         56.94442       45.60473        6.38219
H         57.79729       42.71904        7.06143
H         59.52653       43.86191        7.58197
H         56.21659       44.88828        8.56341
H         55.50082       43.42232        7.78085
H         56.63972       43.24923        9.17257
N         59.25423       46.15608        5.66440
C         60.42403       46.72161        5.01332
C         60.25010       48.06752        4.26696
O         61.23214       48.41941        3.62821
C         61.53872       46.93187        6.08839
C         62.60959       45.84027        6.18492
C         63.73241       45.92467        5.12768
C         63.31116       45.66072        3.67620
N         64.48284       45.41150        2.83464
H         58.91099       46.63194        6.49885
H         60.75639       46.02501        4.22121
H         61.04355       47.02639        7.08220
H         62.07776       47.89638        5.96774
H         62.15074       44.83019        6.21619
H         63.13019       46.00327        7.15544
H         64.48313       45.16034        5.41393
H         64.23173       46.92172        5.17761
H         62.76427       46.54167        3.28705
H         62.64731       44.77097        3.62283
H         64.21501       45.49681        1.82781
H         65.25188       46.08895        3.04309
H         64.82366       44.43724        3.00786
N         59.16952       48.92387        4.23796
C         57.85408       48.84539        4.86672
C         57.89538       48.85231        6.37388
O         57.18613       48.08785        7.01465
C         56.98016       47.79285        4.17260
C         56.53307       48.32275        2.80540
C         56.09853       47.20376        1.93475
O         54.81778       47.10038        1.57415
O         56.91209       46.38505        1.53742
H         59.31149       49.77880        3.67642
H         57.34437       49.81653        4.67289
H         56.05969       47.55344        4.75158
H         57.56078       46.87491        4.03533
H         57.34402       48.84838        2.26175
H         55.70491       49.04812        2.97606
N         58.63057       49.80143        7.01111
C         58.59309       49.95707        8.44634
H         57.54071       50.10039        8.77303
H         59.02454       49.06618        8.94847
H         59.17157       50.85948        8.73520
H         59.19570       50.46157        6.45600
Ca        52.46825       45.95247        1.30271
O         54.53780       45.69730       -0.89723
H         54.95835       45.15171       -1.60520
H         55.20525       46.40006       -0.70677
O         52.11253       43.88312       -0.35889
H         52.79611       43.78621       -1.05975
H         52.44712       43.31724        0.37762
O         52.54016       48.80931        1.98666
H         53.36177       48.77733        2.53550
H         52.63437       49.63663        1.45333
O         52.01350       46.06708        3.93063
H         52.46832       45.51986        4.61081
H         51.32405       46.56742        4.42904
O         52.02400       47.55640       -0.89877
H         51.90586       48.53238       -1.00138
H         52.66860       47.30415       -1.60533

Ca 1.70



