%chk=loop2.cluster10.chk
%nprocshared=48
%mem=10GB
%nosave
#b3lyp/svp scf=(tight,noincore) Test 
#IOP(5/87=12) Density=Current Pop=(MK,readradii) iop(6/33=2) iop(6/42=6)

loop2.cluster10 

   -2  1 
C         63.02740       35.22907        6.13932
C         62.36251       35.61679        4.85224
O         61.77837       34.77241        4.20012
H         64.06400       35.62253        6.16911
H         62.44987       35.65860        6.98562
H         63.05069       34.12937        6.26369
N         62.41461       36.90699        4.42847
C         61.67160       37.41982        3.27397
C         61.96020       36.71706        1.94164
O         61.15939       36.84224        1.02476
C         61.97005       38.92483        3.14925
C         61.07806       39.64227        2.18418
O         61.56003       40.29533        1.27308
O         59.74253       39.60793        2.35070
H         62.96043       37.56950        4.99996
H         60.59880       37.28436        3.51902
H         63.04069       39.05342        2.86517
H         61.81665       39.39650        4.14186
N         63.09322       35.98072        1.76196
C         63.44021       35.28165        0.52467
C         62.41034       34.20323        0.18588
O         62.06565       34.02512       -0.97387
C         63.71535       36.27795       -0.61739
H         63.76091       35.90643        2.54132
H         64.40008       34.75971        0.72842
H         64.41476       37.06514       -0.25969
H         64.19348       35.76443       -1.47838
H         62.78694       36.77508       -0.96968
N         61.90103       33.43853        1.19912
C         60.86341       32.40242        1.11866
C         59.92912       32.51841       -0.07284
O         59.68271       31.53492       -0.75814
C         61.48722       30.99320        1.27453
C         62.23699       30.86608        2.57413
O         63.23161       31.54460        2.76267
O         61.80251       29.99465        3.52113
H         62.25299       33.63674        2.14143
H         60.19128       32.57235        1.98422
H         62.16539       30.77937        0.41723
H         60.67314       30.23746        1.27224
N         59.36749       33.71994       -0.37567
C         58.54143       33.91223       -1.55071
C         57.17081       33.28367       -1.46373
O         56.81947       32.67316       -0.46576
H         59.62407       34.54825        0.18321
H         59.07412       33.50700       -2.43688
H         58.39641       35.00296       -1.70667
N         56.32568       33.44301       -2.51806
C         54.95808       32.94558       -2.58403
C         54.10169       33.52463       -1.45785
O         53.40173       32.78372       -0.78067
C         54.93896       31.39895       -2.65202
C         53.57512       30.87025       -3.03111
N         52.88829       30.05900       -2.19378
O         53.08983       31.17518       -4.11082
H         56.67154       33.97294       -3.33283
H         54.54602       33.32104       -3.54794
H         55.27494       30.97579       -1.68100
H         55.65206       31.05602       -3.43335
H         53.27916       29.79368       -1.27857
H         51.95839       29.70363       -2.46228
N         54.09843       34.86733       -1.21746
C         53.27814       35.46612       -0.16996
C         53.90348       35.40490        1.21676
O         53.28620       35.87096        2.16379
H         54.68583       35.48489       -1.79960
H         52.25521       35.03700       -0.19907
H         53.18069       36.55226       -0.38881
N         55.18051       34.96506        1.38204
C         55.95912       35.19739        2.59407
C         55.48093       34.44546        3.82361
O         55.19562       33.25815        3.74139
C         57.45245       34.86549        2.31120
C         58.39845       35.70593        3.15475
O         57.75413       33.50638        2.51244
H         55.68034       34.61556        0.55857
H         55.90796       36.29410        2.78146
H         57.69781       35.16303        1.27046
H         57.14174       32.97134        1.95097
H         58.19674       36.78640        2.97697
H         58.30831       35.48553        4.23643
H         59.43152       35.48718        2.81657
N         55.52588       35.06428        5.03702
C         55.29958       34.36445        6.30468
C         56.30921       33.23637        6.48998
O         57.34078       33.26185        5.83843
C         55.37358       35.39162        7.48536
C         54.95455       34.74412        8.82542
C         56.76810       36.06704        7.60403
C         54.70126       35.74850        9.94125
H         55.76904       36.06370        5.05137
H         54.27924       33.92452        6.25672
H         54.62457       36.17810        7.24528
H         55.72860       34.03350        9.18131
H         54.00132       34.19721        8.66298
H         56.75405       36.87500        8.36221
H         57.55020       35.33059        7.88497
H         57.09291       36.55064        6.66130
H         55.63326       36.27208       10.23336
H         53.93751       36.48593        9.61772
H         54.31722       35.20258       10.82879
N         56.09565       32.23403        7.39826
C         57.11436       31.22755        7.69709
C         56.51711       29.82826        7.94821
O         57.22240       28.93450        8.38603
C         57.96525       31.75259        8.88048
C         59.46341       31.58191        8.70503
O         59.98522       31.08403        7.55187
O         60.20765       32.00213        9.57563
H         55.24267       32.25840        7.97440
H         57.76742       31.12874        6.80926
H         57.58434       31.33444        9.83613
H         57.84320       32.85551        8.95580
N         55.21820       29.57307        7.63482
C         54.57160       28.26534        7.72319
C         54.47156       27.64366        9.10844
O         54.74999       26.45188        9.20137
C         53.14867       28.40666        7.11193
C         52.25452       27.18367        7.08846
C         52.69732       25.96054        6.55597
C         50.92659       27.29060        7.54724
C         51.82398       24.86740        6.48447
C         50.05597       26.20193        7.45725
C         50.50329       24.99141        6.92626
H         54.66041       30.33201        7.22560
H         55.12911       27.55186        7.07541
H         53.28296       28.72788        6.05800
H         52.60749       29.22395        7.63409
H         53.71069       25.85302        6.19422
H         50.55505       28.22675        7.94505
H         52.16640       23.92663        6.07388
H         49.02978       26.30194        7.78879
H         49.82402       24.15155        6.85181
N         53.91623       28.27373       10.18951
C         53.62478       29.69145       10.30535
C         54.55275       30.35511       11.34441
O         54.36046       31.52916       11.63740
C         52.20765       29.62453       10.87292
C         52.34826       28.50754       11.92287
C         53.23951       27.48834       11.20458
H         53.67898       30.26561        9.36733
H         51.81005       30.58414       11.26721
H         51.53475       29.26741       10.06150
H         52.90469       28.92372       12.78874
H         51.38865       28.08742       12.29320
H         53.91278       26.90273       11.86268
H         52.56295       26.77993       10.67689
N         55.50056       29.63102       12.01909
C         56.16172       30.12705       13.22408
C         57.27175       31.10015       12.88660
O         58.24749       30.70471       12.26275
C         56.71452       28.93753       14.05901
C         55.60968       27.95349       14.51567
C         54.64043       28.50717       15.52804
O         54.84145       29.71000       16.10026
O         53.67305       27.84012       15.85901
H         55.64204       28.64287       11.77103
H         55.40399       30.63808       13.85470
H         57.26526       29.30083       14.95367
H         57.43365       28.37384       13.42359
H         56.07620       27.04922       14.96029
H         55.03594       27.61749       13.63669
N         57.18374       32.40187       13.28478
C         58.21648       33.38456       13.01977
H         59.11043       32.94788       12.52701
H         57.80308       34.17950       12.36495
H         58.53892       33.84551       13.97787
H         56.34251       32.71804       13.78987
Ca        61.28541       30.34042        5.76801
O         60.07502       32.35937        4.59081
H         59.41194       32.27407        5.31508
H         59.95691       33.27693        4.25850
O         63.67539       31.72388        5.82502
H         63.93614       31.45733        4.91564
H         64.52164       32.04518        6.21600
O         58.85998       29.36071        4.85755
H         59.06498       28.54527        4.33554
H         58.36551       29.94790        4.23350
O         62.59800       30.03592        8.43167
H         63.33229       29.69698        8.99864
H         62.16186       30.71540        8.99851
O         60.12955       28.10288        7.36580
H         59.66963       27.23939        7.50159
H         59.45980       28.76899        7.64576
O         63.15187       28.14623        5.90328
H         63.90881       28.52458        5.38929
H         62.88564       27.33658        5.40001

Ca 1.70



