%chk=loop2.cluster173.chk
%nprocshared=48
%mem=10GB
%nosave
#b3lyp/svp scf=(tight,noincore) Test 
#IOP(5/87=12) Density=Current Pop=(MK,readradii) iop(6/33=2) iop(6/42=6)

loop2.cluster173 

   -2  1 
C        116.14829       57.13194       -3.60198
C        114.72794       57.61862       -3.70024
O        113.83635       56.89247       -3.28557
H        116.77378       57.83453       -3.01316
H        116.18059       56.14180       -3.09815
H        116.56404       57.01343       -4.62445
N        114.39887       58.83559       -4.22672
C        115.37307       59.84278       -4.65909
C        115.22043       60.23060       -6.12623
O        114.21270       59.90795       -6.72798
C        115.32301       61.06548       -3.69991
C        113.97150       61.69469       -3.41645
O        112.95418       61.30590       -3.96404
O        113.88710       62.68337       -2.50602
H        113.39709       59.06494       -4.27550
H        116.39948       59.43465       -4.58998
H        116.00771       61.85953       -4.06639
H        115.70354       60.71518       -2.71715
N        116.26851       60.84871       -6.77071
C        116.33199       61.28080       -8.17826
C        115.49142       62.49702       -8.44219
O        116.03072       63.57982       -8.63453
C        115.99349       60.17965       -9.19335
H        117.12662       61.00067       -6.21948
H        117.38396       61.59487       -8.36588
H        116.68014       59.32128       -9.08384
H        114.95132       59.81534       -9.08748
H        116.08569       60.59286      -10.22337
N        114.14657       62.38115       -8.47312
C        113.26062       63.49750       -8.57735
C        113.00903       63.98668       -7.14109
O        112.74051       63.03564       -6.13451
C        112.07055       63.19458       -9.55030
C        111.65987       61.74573       -9.86593
O        111.22781       60.87605       -8.93247
O        111.70713       61.36310      -11.02376
H        113.72351       61.47452       -8.28868
H        113.77374       64.39085       -9.00603
H        112.41236       63.57512      -10.54134
H        111.19596       63.82418       -9.28787
N        112.15552       65.16252       -7.05619
C        112.11727       65.64910       -5.67877
C        110.77070       66.18183       -5.36852
O        109.96563       66.42021       -6.25750
H        112.56737       65.92623       -7.64590
H        112.89050       66.42789       -5.48494
H        112.30036       64.85404       -4.92657
N        110.48220       66.43271       -4.07846
C        109.29483       67.13979       -3.66372
C        109.55586       67.75026       -2.32260
O        110.08086       67.10610       -1.42264
C        108.00253       66.29518       -3.64790
C        107.31169       66.28043       -4.98477
N        106.76466       67.42316       -5.47315
O        107.20478       65.23712       -5.60904
H        111.20768       66.21122       -3.37609
H        109.15021       68.00011       -4.35112
H        107.25624       66.77841       -2.97844
H        108.20877       65.27907       -3.24992
H        106.80810       68.29963       -4.92893
H        106.26828       67.42664       -6.37579
N        109.15660       69.02448       -2.12695
C        109.30428       69.69423       -0.86035
C        108.30252       70.82516       -0.76981
O        107.91960       71.37900       -1.79119
H        108.64026       69.48490       -2.89022
H        110.35479       70.02197       -0.70751
H        109.03627       68.95183       -0.08047
N        107.70796       71.14358        0.40679
C        108.18110       70.67379        1.70489
C        107.38137       69.50776        2.26938
O        107.69327       69.08057        3.36989
C        108.23577       71.87606        2.67317
C        109.26524       72.90423        2.19259
O        106.98125       72.50276        2.77494
H        106.92121       71.81124        0.38001
H        109.21955       70.28611        1.63603
H        108.57244       71.53569        3.67720
H        106.39724       71.90684        3.31049
H        109.32911       73.73849        2.92055
H        110.26741       72.43006        2.11132
H        108.98842       73.32008        1.19962
N        106.38891       68.89890        1.55414
C        105.60858       67.75572        2.03462
C        104.79076       68.18147        3.25722
O        105.37211       68.34388        4.32059
C        106.47582       66.48245        2.31506
C        107.50588       66.16390        1.20030
C        105.57674       65.25759        2.57349
C        106.94079       66.14119       -0.21682
H        106.16548       69.25060        0.61177
H        104.93771       67.48526        1.19778
H        107.07650       66.63035        3.23877
H        107.97361       65.17851        1.42199
H        108.32366       66.91591        1.21780
H        104.94995       65.01919        1.68978
H        106.19842       64.36665        2.81180
H        104.91131       65.43971        3.44139
H        107.73557       65.78366       -0.89908
H        106.06628       65.46888       -0.30793
H        106.65375       67.16604       -0.53301
N        103.45658       68.46595        3.20317
C        102.62881       68.30272        2.01814
C        102.35254       66.83891        1.78116
O        102.61262       66.34447        0.68949
C        101.31020       69.13406        2.08107
C        100.36262       69.06131        3.26625
O        100.66670       68.40714        4.40005
O         99.31475       69.68365        3.21522
H        103.01956       68.83871        4.05609
H        103.14626       68.73200        1.12981
H        100.72828       68.87433        1.16796
H        101.58894       70.20564        1.99730
N        101.77691       66.09310        2.76213
C        101.32654       64.73275        2.58239
C         99.80772       64.78193        2.43329
O         99.23311       65.83676        2.70278
C        101.82946       63.89436        3.79002
C        100.97259       64.01772        5.04087
C        101.28739       64.92648        6.06880
C         99.85253       63.17863        5.19365
C        100.48630       64.99200        7.21942
C         99.06332       63.24439        6.34257
C         99.37802       64.14991        7.35517
H        101.57910       66.52942        3.66210
H        101.77854       64.33480        1.64933
H        102.87668       64.20028        4.01054
H        101.90919       62.81926        3.54138
H        102.14413       65.58191        5.98133
H         99.59633       62.46274        4.42879
H        100.72526       65.69157        8.01015
H         98.20953       62.58662        6.44816
H         98.76417       64.19490        8.24638
N         99.05935       63.73579        1.98902
C         99.57759       62.44377        1.57163
C        100.23281       62.50507        0.20812
O        100.37030       63.57362       -0.36944
C         98.29086       61.60446        1.52254
C         97.26668       62.61199        1.03423
C         97.62057       63.82834        1.87412
H        100.27185       61.98585        2.29879
H         98.34756       60.66371        0.93759
H         98.00782       61.34111        2.56679
H         97.50372       62.84542       -0.02874
H         96.20436       62.30154        1.09642
H         97.27671       64.74918        1.35148
H         97.18452       63.77601        2.89668
N        100.62347       61.33758       -0.37934
C        101.14917       61.26380       -1.72501
C        102.52108       60.56613       -1.84336
O        102.82662       60.16691       -2.95928
C        100.10478       60.49356       -2.57682
C         98.71294       61.15269       -2.65203
C         98.75663       62.53539       -3.24288
O         99.25251       62.71836       -4.34322
O         98.22943       63.57511       -2.56854
H        100.48023       60.45236        0.12826
H        101.26256       62.26777       -2.18870
H         99.98161       59.46835       -2.16241
H        100.47243       60.39834       -3.62071
H         98.23933       61.18718       -1.64833
H         98.07272       60.51866       -3.30213
N        103.46032       60.41039       -0.85080
C        103.43449       60.88589        0.52075
H        104.24492       61.63438        0.64257
H        102.52084       61.36813        0.86322
H        103.64862       60.03753        1.20481
H        104.33621       59.93685       -1.12323
Ca       111.67250       61.24462       -6.84050
O        109.11761       59.67602       -6.80973
H        108.95720       58.69974       -6.83035
H        108.26219       60.07688       -7.10466
O        110.12421       59.98091       -3.91691
H        109.17853       59.71208       -3.79926
H        110.25142       60.72546       -3.27680
O        109.53093       62.81379       -6.50321
H        109.55937       63.79899       -6.44925
H        108.85805       62.61330       -7.19974
O        111.89109       58.11485       -6.78865
H        111.21322       57.40648       -6.65422
H        112.57060       57.70136       -7.37824

Ca 1.70



