%chk=loop3.cluster56.chk
%nprocshared=48
%mem=10GB
%nosave
#b3lyp/svp scf=(tight,noincore) Test 
#IOP(5/87=12) Density=Current Pop=(MK,readradii) iop(6/33=2) iop(6/42=6)

loop3.cluster56 

   0  1 
C         79.64325       72.37273       20.77133
C         80.60753       71.27291       20.47175
O         80.40059       70.14846       20.90867
H         78.75365       71.98191       21.30754
H         80.15518       73.12066       21.41235
H         79.32088       72.85821       19.82690
N         81.70009       71.52923       19.70426
C         82.70057       70.50883       19.43732
C         83.50241       70.21304       20.68828
O         83.47818       70.98532       21.63765
C         83.60874       70.92419       18.25466
C         84.31132       72.24114       18.46684
O         85.27614       72.35828       19.39837
O         84.01270       73.20767       17.78245
H         81.80242       72.46664       19.28773
H         82.17468       69.57889       19.12140
H         82.95243       71.01498       17.36186
H         84.36580       70.14059       18.03071
N         84.27310       69.10103       20.72768
C         85.14775       68.78120       21.84535
C         84.38172       68.40197       23.10456
O         84.86624       68.68593       24.18874
C         86.09423       67.65204       21.38898
C         87.12968       67.23550       22.43396
C         88.10642       66.21293       21.83819
C         89.11708       65.76614       22.89682
N         90.05624       64.77995       22.36176
H         84.26083       68.47344       19.90784
H         85.78952       69.66289       22.06525
H         86.63807       68.03596       20.49581
H         85.50620       66.75822       21.08438
H         86.60930       66.78333       23.30437
H         87.69837       68.12871       22.77449
H         88.65167       66.68119       20.98669
H         87.54868       65.32949       21.45815
H         88.57371       65.32292       23.75809
H         89.67733       66.65856       23.25168
H         90.86484       64.69218       23.01744
H         89.58651       63.84901       22.27841
H         90.42064       65.07818       21.42831
N         83.18616       67.74929       23.02710
C         82.48872       67.16569       24.17817
C         83.17418       65.86086       24.60507
O         82.60764       64.78560       24.45700
C         80.97833       66.97752       23.86319
C         80.67946       66.14519       22.64920
O         79.40530       66.00201       22.23907
O         81.58032       65.61467       22.01906
H         82.76798       67.64250       22.09546
H         82.49711       67.87937       25.02477
H         80.53549       67.98353       23.69968
H         80.45751       66.52212       24.73614
N         84.40041       65.90526       25.19097
C         85.13415       64.74164       25.63618
C         85.72096       63.89823       24.52281
O         85.48978       64.18327       23.35658
H         84.81010       66.81227       25.41814
H         84.48471       64.11589       26.28268
H         85.99331       65.12172       26.22531
N         86.50275       62.81091       24.80711
C         86.84582       62.40142       26.17432
C         86.10748       61.12267       26.52962
O         85.67440       60.43151       25.61659
C         88.37168       62.20127       26.29942
C         89.18250       63.43539       25.99123
N         90.44897       63.31189       25.53082
O         88.71484       64.54717       26.18891
H         86.84868       62.23480       24.02120
H         86.55374       63.16255       26.89806
H         88.68013       61.38658       25.60953
H         88.66112       61.87076       27.31422
H         90.85939       62.37993       25.37110
H         91.01704       64.14813       25.33267
N         85.92404       60.69213       27.81837
C         86.28605       61.41735       29.03826
C         85.26533       62.48551       29.40876
O         85.09598       63.44310       28.67203
H         85.48749       59.76525       27.94376
H         87.31418       61.81473       29.00034
H         86.28095       60.67043       29.86060
N         84.50352       62.34805       30.53763
C         83.37337       63.22657       30.84659
C         83.49151       63.73821       32.27929
O         82.98124       63.10269       33.19474
C         82.08184       62.41784       30.59928
C         82.11598       61.76427       29.22660
C         82.17637       62.53963       28.05519
C         82.13713       60.36275       29.11775
C         82.25945       61.92645       26.80247
C         82.21689       59.75181       27.86304
C         82.27849       60.53350       26.70103
O         82.35859       59.95531       25.48566
H         84.64601       61.52113       31.13790
H         83.33781       64.09422       30.15937
H         81.19027       63.07346       30.69762
H         82.01119       61.62083       31.37115
H         82.17439       63.61325       28.10968
H         82.10674       59.74356       30.00526
H         82.31436       62.53435       25.90923
H         82.23794       58.67175       27.79526
H         82.36879       58.99340       25.37986
N         84.30104       64.80187       32.55203
C         84.76393       65.14633       33.89698
C         84.61231       66.60585       34.32769
O         84.98688       66.91673       35.44687
C         86.27523       64.79991       33.98514
C         86.45085       63.27001       33.99488
C         87.09926       65.46569       32.84486
C         87.78073       62.85621       34.60998
H         84.71936       65.29203       31.75560
H         84.21022       64.56317       34.66751
H         86.63739       65.18104       34.96473
H         86.32003       62.85205       32.97226
H         85.67403       62.81872       34.64883
H         86.90298       66.55941       32.79242
H         88.18614       65.31377       32.97847
H         86.84647       65.03332       31.85098
H         87.82793       61.74930       34.65558
H         88.64004       63.24330       34.02935
H         87.83426       63.24553       35.65183
N         84.10029       67.54756       33.49841
C         84.07825       68.97186       33.84377
C         84.78771       69.84278       32.79557
O         84.99710       71.02134       33.06352
C         82.61735       69.42560       34.08937
O         81.88482       69.67355       32.91905
H         83.72172       67.23596       32.62342
H         84.61298       69.11470       34.80511
H         82.62839       70.37407       34.66136
H         82.08978       68.66311       34.70603
H         82.15179       69.00818       32.24876
N         85.13262       69.35111       31.56061
C         85.68040       70.15972       30.47362
C         84.54683       70.73629       29.61736
O         84.59540       70.66201       28.39663
C         86.62176       69.27255       29.63036
H         84.92021       68.37973       31.34125
H         86.26493       71.00361       30.89808
H         87.11012       69.83733       28.81121
H         87.40101       68.81379       30.27509
H         86.04752       68.44672       29.15984
N         83.45852       71.28650       30.23010
C         82.28208       71.81110       29.55267
C         81.69496       70.79031       28.59527
O         81.43460       71.09705       27.43787
C         82.56968       73.18350       28.94966
H         83.41427       71.28045       31.25141
H         81.52188       71.98243       30.34836
H         83.23034       73.11056       28.06316
H         81.61322       73.67594       28.67256
H         83.06621       73.81419       29.72032
N         81.50218       69.51981       29.04043
C         80.93228       68.43985       28.24281
C         79.73721       67.80243       28.95494
O         78.75887       67.48673       28.29428
C         82.00451       67.45029       27.69615
C         82.62933       66.34426       28.54887
C         83.40723       66.82249       29.69168
O         82.76413       67.40179       30.69163
O         84.60191       66.59440       29.77446
H         81.80011       69.33123       29.99654
H         80.53740       68.88197       27.29988
H         82.83026       68.05821       27.26229
H         81.51864       66.88005       26.88149
H         83.32672       65.76980       27.90040
H         81.84370       65.66822       28.93611
N         79.71641       67.66780       30.31973
C         78.57469       67.19193       31.06915
H         77.70759       66.94658       30.42603
H         78.86871       66.29598       31.65544
H         78.27078       67.98718       31.78556
H         80.52219       67.94430       30.88026
Ca        79.19942       64.17937       19.13897
O         80.93244       66.46012       19.02498
H         80.93736       66.76578       19.96325
H         81.77173       66.81958       18.64644
O         79.28450       61.71182       17.75575
H         78.60999       61.97681       17.08087
H         79.05416       60.77907       17.99127
O         81.95700       63.19021       19.00325
H         82.34713       63.08395       18.10022
H         82.64152       63.68862       19.51556
O         77.02680       63.03357       20.43678
H         77.07897       63.29682       21.38966
H         76.56696       62.15798       20.43605
O         80.26935       62.72839       21.52730
H         81.06297       62.44655       22.04503
H         80.39995       63.69654       21.39909
O         77.29468       66.16931       19.59650
H         76.86868       66.15335       20.48960
H         77.88525       66.96378       19.61165
O         80.45048       64.72542       16.68798
H         81.43799       64.69458       16.63566
H         80.14123       64.02358       16.06310

Ca 1.70



