%chk=loop2.cluster22.chk
%nprocshared=48
%mem=10GB
%nosave
#b3lyp/svp scf=(tight,noincore) Test 
#IOP(5/87=12) Density=Current Pop=(MK,readradii) iop(6/33=2) iop(6/42=6)

loop2.cluster22 

   -2  1 
C         47.54935       43.80108        3.47863
C         46.35889       44.16375        2.64143
O         46.13245       45.35267        2.46146
H         48.40033       44.45099        3.17932
H         47.31746       44.00338        4.54403
H         47.87229       42.75301        3.35548
N         45.53957       43.23825        2.05650
C         45.69858       41.78084        2.16468
C         45.36359       41.12591        3.54749
O         45.07768       42.02949        4.56179
C         44.86727       41.04806        1.09349
C         43.48730       41.58014        0.79898
O         43.17210       41.72114       -0.37159
O         42.59438       41.91406        1.76193
H         44.78876       43.61027        1.45452
H         46.74938       41.52893        1.92056
H         44.81195       39.96311        1.32394
H         45.41761       41.12752        0.13075
N         46.36667       40.11936        3.95104
C         45.92545       39.09052        4.92120
C         44.70547       38.32320        4.40197
O         44.82203       37.73925        3.33305
C         45.85500       39.67061        6.33870
H         46.67771       39.60483        3.09468
H         46.75254       38.34831        4.98292
H         44.98797       40.33779        6.49191
H         45.82397       38.84647        7.08405
H         46.78481       40.25277        6.52905
N         43.49742       38.30033        5.05146
C         42.31063       37.70584        4.41570
C         42.06282       38.39532        3.08009
O         42.30973       39.58320        2.99273
C         41.05613       37.73023        5.32229
C         40.63352       39.06714        5.85055
O         41.27139       40.07601        5.59774
O         39.54628       39.14103        6.64255
H         43.39838       38.76577        5.96497
H         42.50328       36.62916        4.22145
H         41.24066       37.07980        6.20327
H         40.19976       37.30106        4.75524
N         41.75957       37.66777        1.96205
C         41.78502       38.21954        0.60586
C         40.51352       38.95263        0.21589
O         39.83086       38.51458       -0.69991
H         41.63944       36.64933        2.06237
H         41.89536       37.36383       -0.09583
H         42.68764       38.85064        0.46793
N         40.12483       40.06708        0.88794
C         38.85540       40.75352        0.68479
C         39.01373       42.27323        0.53341
O         38.02197       42.98546        0.59728
C         37.96654       40.46256        1.91250
C         38.44990       41.02174        3.23774
N         37.60486       41.04957        4.28825
O         39.57595       41.47714        3.36346
H         40.71790       40.39914        1.64120
H         38.31501       40.35573       -0.20228
H         37.82060       39.36469        2.02095
H         36.97368       40.91066        1.70531
H         36.64037       40.70720        4.18947
H         37.90036       41.45452        5.18405
N         40.23782       42.83323        0.34691
C         40.47882       44.26814        0.38446
C         40.49576       44.77714        1.81605
O         40.50890       43.97179        2.72858
H         41.01466       42.22079        0.14595
H         39.71621       44.77067       -0.24020
H         41.49012       44.48751       -0.02159
N         40.47694       46.10758        2.11714
C         40.29030       47.17527        1.14263
C         41.16055       48.41306        1.43046
O         41.12034       49.35221        0.65587
C         38.76828       47.55235        1.17466
C         38.33938       48.03137        2.57079
O         38.38608       48.53708        0.24141
H         40.41240       46.34282        3.12057
H         40.55056       46.82182        0.12077
H         38.18628       46.63185        0.93970
H         39.10590       48.69516       -0.41554
H         37.28695       48.37713        2.55105
H         38.39984       47.21056        3.31515
H         38.98081       48.87171        2.90823
N         41.90915       48.50370        2.57433
C         42.58614       49.72337        3.00215
C         41.60309       50.88065        3.12571
O         41.50809       51.66731        2.19085
C         43.82564       50.08872        2.13492
C         44.78424       48.87696        2.06366
C         44.52017       51.32766        2.75674
C         45.95042       49.08378        1.09838
H         41.96738       47.71083        3.21545
H         43.00447       49.52187        4.01036
H         43.50960       50.33420        1.09620
H         44.22310       47.99890        1.67944
H         45.16876       48.62860        3.07702
H         45.46634       51.58906        2.25044
H         43.87249       52.22592        2.68026
H         44.72784       51.15452        3.83561
H         45.56532       49.32660        0.08448
H         46.62952       49.89004        1.43781
H         46.53839       48.14463        1.03532
N         40.85818       51.11647        4.24323
C         40.73137       50.21372        5.39008
C         41.73927       50.45841        6.50572
O         42.69268       49.69940        6.61100
C         39.26031       50.15472        5.91305
C         38.47778       51.45267        6.10669
O         37.17314       51.38127        6.42447
O         38.98064       52.55316        5.94159
H         40.27346       51.95507        4.21115
H         40.94895       49.17564        5.05112
H         39.23953       49.59026        6.87348
H         38.67790       49.57325        5.17542
N         41.50793       51.40114        7.46171
C         42.31617       51.53459        8.66441
C         41.41869       51.28219        9.89278
O         40.31955       51.81127        9.92183
C         42.95300       52.93786        8.70121
C         41.97663       54.04821        8.99771
C         41.35919       54.76782        7.96302
C         41.67905       54.36538       10.33510
C         40.45165       55.78884        8.26767
C         40.77435       55.38337       10.63355
C         40.16048       56.09582        9.60141
H         40.69801       52.01455        7.37757
H         43.17338       50.83643        8.63568
H         43.48046       53.12181        7.73893
H         43.73975       52.95933        9.48667
H         41.57482       54.53390        6.92776
H         42.14760       53.81566       11.14336
H         39.97280       56.34205        7.47082
H         40.55000       55.61768       11.66606
H         39.45927       56.88535        9.83619
N         41.83509       50.54044       10.97321
C         43.12151       49.89231       11.07465
C         43.20071       48.70211       10.12883
O         42.23356       48.43446        9.42241
C         43.19963       49.43839       12.54256
C         42.14340       50.28915       13.24501
C         41.06004       50.45782       12.18952
H         43.90868       50.65558       10.87669
H         42.87451       48.38101       12.62599
H         44.21524       49.54964       12.98657
H         41.78556       49.87814       14.21510
H         42.58101       51.29522       13.42008
H         40.40516       49.56235       12.12153
H         40.46291       51.37031       12.41080
N         44.33566       47.96221       10.03015
C         44.48620       46.93465        9.00415
C         45.95291       46.56000        8.77294
O         46.29811       45.39371        8.90272
C         43.61101       45.67881        9.27183
C         43.85453       45.01889       10.64407
C         43.34444       43.60169       10.68644
O         42.25423       43.31575       10.21752
O         44.10489       42.63568       11.23950
H         45.14733       48.21898       10.61503
H         44.15386       47.35541        8.02794
H         43.84288       44.96759        8.45370
H         42.52532       45.90844        9.18859
H         43.34809       45.62959       11.42019
H         44.93171       44.98091       10.90336
N         46.87907       47.45924        8.32630
C         46.63744       48.87157        8.10288
H         45.66537       49.23283        8.47687
H         47.43341       49.45251        8.61477
H         46.68599       49.08445        7.01607
H         47.81925       47.10486        8.09396
Ca        42.94871       42.18349        3.94337
O         43.24660       44.92622        4.10037
H         44.14634       44.95573        3.71083
H         43.11028       45.83697        4.45509
O         43.36327       42.78497        6.75656
H         44.33344       42.60027        6.78433
H         43.13149       42.95359        7.70029
O         39.83219       42.48716        6.41862
H         39.61377       42.95123        7.26219
H         39.63473       41.54616        6.62087
O         41.14625       44.64681        5.71355
H         41.29063       45.39202        6.34652
H         40.34843       44.90663        5.18943

Ca 1.70



