%chk=loop2.cluster238.chk
%nprocshared=48
%mem=10GB
%nosave
#b3lyp/svp scf=(tight,noincore) Test 
#IOP(5/87=12) Density=Current Pop=(MK,readradii) iop(6/33=2) iop(6/42=6)

loop2.cluster238 

   -2  1 
C         76.78768       51.06963       56.44497
C         76.17408       51.23608       55.08526
O         75.15610       50.61901       54.80447
H         77.70918       51.68273       56.54396
H         76.06784       51.38581       57.22631
H         77.06571       50.00604       56.60180
N         76.77621       52.03798       54.16611
C         76.27869       52.19366       52.80725
C         74.98754       52.99998       52.80347
O         74.99700       54.16139       53.18731
C         77.39866       52.81551       51.94853
C         77.02059       53.03056       50.51409
O         77.18302       54.24523       49.95610
O         76.60449       52.10334       49.83849
H         77.65555       52.50897       54.42933
H         76.09275       51.18021       52.38446
H         78.26074       52.11058       51.97688
H         77.73343       53.78029       52.38733
N         73.83271       52.42443       52.36007
C         72.53312       53.09629       52.36152
C         71.46099       52.14457       52.92213
O         71.72086       50.95065       52.98723
C         72.25208       53.53668       50.91433
H         73.88124       51.46535       51.98311
H         72.56711       53.99872       53.00330
H         72.98795       54.32390       50.63565
H         72.37657       52.68566       50.21279
H         71.24862       53.96038       50.74857
N         70.22162       52.55595       53.34214
C         69.74943       53.93944       53.33102
C         70.38815       54.78786       54.42354
O         71.02441       54.24862       55.31851
C         68.20073       53.96576       53.32627
C         67.55264       53.42720       54.57006
O         66.87580       52.41134       54.52015
O         67.65011       54.10696       55.72486
H         69.56455       51.82265       53.65531
H         70.02613       54.38760       52.36986
H         67.87251       53.34428       52.46203
H         67.82429       54.99545       53.16038
N         70.28895       56.14960       54.37822
C         70.93563       57.01928       55.35650
C         72.45252       56.97708       55.23649
O         72.95494       56.29675       54.35423
H         69.75462       56.58668       53.61187
H         70.58479       56.74405       56.37264
H         70.63610       58.07125       55.15062
N         73.27946       57.70945       56.04062
C         72.86226       58.49367       57.19610
C         73.67182       58.01638       58.40118
O         73.88663       58.78399       59.33045
C         73.10857       59.98744       56.87676
C         72.58385       60.94577       57.92458
N         71.26771       60.97028       58.24576
O         73.35243       61.72532       58.46788
H         74.29193       57.68337       55.83790
H         71.78231       58.36504       57.41055
H         72.58824       60.23244       55.92678
H         74.19880       60.15218       56.72479
H         70.60133       60.32880       57.79290
H         70.91466       61.63982       58.94621
N         74.11884       56.72100       58.46212
C         74.90541       56.20675       59.57004
C         74.04740       55.33504       60.44200
O         74.54161       54.38631       61.03566
H         73.84544       56.05263       57.72811
H         75.28966       57.02759       60.21230
H         75.79041       55.65874       59.17927
N         72.75467       55.69659       60.65787
C         71.88304       55.04277       61.61248
C         71.29341       53.78759       61.05377
O         71.04029       53.73215       59.85890
C         70.75341       56.00851       62.03300
C         71.34817       57.20857       62.77272
O         70.03002       56.48355       60.91999
H         72.39413       56.53006       60.17555
H         72.45529       54.78911       62.53278
H         70.07839       55.48028       62.74380
H         69.32658       55.82015       60.70375
H         71.91037       57.86561       62.07378
H         70.53625       57.79751       63.24227
H         72.04448       56.86563       63.56814
N         70.99190       52.74642       61.88149
C         70.36381       51.52867       61.40224
C         69.01468       51.26701       62.03460
O         68.65488       51.86386       63.04564
C         71.31251       50.30106       61.54125
C         72.52232       50.37922       60.57612
C         71.81581       50.12985       62.99063
C         72.12638       50.51949       59.09994
H         71.21230       52.82907       62.88694
H         70.09930       51.63968       60.33731
H         70.74178       49.38491       61.26932
H         73.10191       49.43541       60.67870
H         73.18486       51.22968       60.84372
H         72.48815       50.96735       63.27816
H         70.96835       50.09879       63.70714
H         72.39461       49.18806       63.09784
H         73.02511       50.44672       58.45581
H         71.40932       49.72786       58.81554
H         71.66959       51.50359       58.88486
N         68.20006       50.36497       61.42947
C         66.86130       49.99561       61.87277
C         66.41402       48.71674       61.18310
O         67.04663       48.26603       60.23495
C         65.83739       51.14841       61.66202
C         65.98399       51.78453       60.31209
O         66.74455       52.73074       60.18237
O         65.48476       51.20606       59.21373
H         68.57715       49.91244       60.58144
H         66.91075       49.73555       62.95484
H         66.05192       51.94476       62.40169
H         64.78614       50.82634       61.83181
N         65.37015       48.01717       61.68206
C         64.94453       46.72297       61.16069
C         66.10085       45.69775       61.12598
O         66.81906       45.58304       62.10918
C         63.78426       46.21113       62.04017
C         63.34320       44.81710       61.68758
C         63.95635       43.71730       62.31152
C         62.34463       44.59973       60.72499
C         63.57913       42.41769       61.97473
C         61.97539       43.29431       60.38512
C         62.59094       42.20508       61.01081
H         64.87852       48.41104       62.50394
H         64.55118       46.87481       60.13621
H         62.92879       46.91666       61.94730
H         64.09139       46.22084       63.10869
H         64.73196       43.87137       63.05237
H         61.87423       45.43778       60.22563
H         64.05789       41.57626       62.45830
H         61.21668       43.12683       59.63270
H         62.30449       41.19608       60.74741
N         66.28372       44.86460       60.04208
C         67.28467       43.80698       59.98375
C         68.58691       44.29935       59.34575
O         69.46200       43.48958       59.06915
C         66.56723       42.77220       59.10547
C         65.79030       43.61737       58.09853
C         65.38591       44.84636       58.90408
H         67.50645       43.34273       60.96989
H         67.20618       41.98507       58.64774
H         65.81627       42.26978       59.75506
H         66.47926       43.93342       57.29139
H         64.91507       43.08310       57.65872
H         65.44897       45.77693       58.29751
H         64.35837       44.69916       59.25295
N         68.77278       45.62369       59.08190
C         69.94130       46.17928       58.40071
C         71.19477       46.18860       59.26984
O         72.23177       46.61584       58.78054
C         69.62682       47.64406       57.98665
C         68.42048       47.70325       57.02929
C         67.83200       49.05912       56.80444
O         68.33312       50.17136       57.35754
O         66.79702       49.14428       56.16469
H         68.02434       46.27090       59.33784
H         70.13193       45.59249       57.47380
H         70.49618       48.11094       57.47662
H         69.41102       48.21460       58.91759
H         67.57851       47.11764       57.44362
H         68.69546       47.26171       56.05140
N         71.17621       45.77345       60.57217
C         72.33418       45.87079       61.43989
H         73.20353       46.35495       60.94711
H         72.06505       46.48212       62.32721
H         72.63434       44.85801       61.77844
H         70.31319       45.39870       60.98634
Ca        66.72134       51.71342       57.44309
O         69.09865       53.14125       57.69911
H         69.12312       52.87798       58.64971
H         70.03708       53.31455       57.44620

Ca 1.70



