%chk=loop4.cluster144.chk
%nprocshared=48
%mem=10GB
%nosave
#b3lyp/svp scf=(tight,noincore) Test 
#IOP(5/87=12) Density=Current Pop=(MK,readradii) iop(6/33=2) iop(6/42=6)

loop4.cluster144 

   -3  1 
C         66.09357       57.40834       43.94814
C         65.29439       58.12138       44.98015
O         64.58827       59.06870       44.66304
H         67.12456       57.27699       44.34028
H         65.65034       56.41084       43.74829
H         66.14165       58.01208       43.02074
N         65.38992       57.73028       46.27186
C         64.70892       58.42795       47.33311
C         65.19656       59.87187       47.47479
O         66.39435       60.12021       47.46951
C         64.83966       57.63619       48.63358
C         64.06681       58.35124       49.66195
O         62.83922       58.79271       49.31186
O         64.55370       58.57348       50.74890
H         65.98331       56.91875       46.50717
H         63.61885       58.43659       47.09053
H         65.88722       57.44041       48.94842
H         64.33022       56.65690       48.48418
N         64.28141       60.86528       47.66595
C         64.57984       62.28646       47.74459
C         64.57306       62.74893       49.20813
O         65.59528       63.23534       49.66726
C         63.56531       63.04494       46.81217
C         63.86991       62.68313       45.32896
C         63.59001       64.56448       47.03543
C         62.91815       63.28605       44.28694
H         63.29993       60.59606       47.76288
H         65.61045       62.49126       47.37394
H         62.53038       62.71507       47.05866
H         63.82619       61.58039       45.20726
H         64.90087       63.01543       45.08148
H         64.59335       64.97848       46.81506
H         62.83008       65.06960       46.40346
H         63.31081       64.80149       48.08349
H         62.95585       64.39228       44.28533
H         63.22793       62.94232       43.27616
H         61.87105       62.96851       44.45301
N         63.45227       62.66865       49.98371
C         63.41300       63.22100       51.35385
C         64.18813       62.42760       52.41469
O         64.30825       62.91068       53.53534
C         61.96859       63.34942       51.87135
C         61.31724       62.01110       52.02322
O         61.01155       61.36802       51.03708
O         61.10371       61.50174       53.25087
H         62.59459       62.30782       49.55008
H         63.82972       64.25070       51.30472
H         61.35276       63.99538       51.21221
H         62.00553       63.83131       52.87303
N         64.69645       61.19750       52.16289
C         65.39560       60.40987       53.16956
C         64.50625       59.65710       54.15810
O         64.73063       59.75931       55.35381
H         64.63683       60.83320       51.20599
H         66.15298       61.03362       53.69355
H         65.96416       59.61346       52.64570
N         63.58056       58.76032       53.70420
C         63.02213       57.67840       54.53303
C         63.45423       56.31263       53.95718
O         63.00974       55.29140       54.46114
C         61.47676       57.77054       54.69880
C         60.70898       57.53448       53.45392
O         59.56271       57.11985       53.49009
O         61.21976       58.03514       52.34143
H         63.37173       58.75904       52.70341
H         63.41429       57.74870       55.56703
H         61.21438       58.79020       55.05202
H         61.12286       57.04166       55.45681
N         64.34769       56.22889       52.91505
C         64.76873       54.97177       52.31159
C         63.69738       54.32106       51.46802
O         63.86505       53.16333       51.09903
H         64.79319       57.07404       52.55363
H         65.13557       54.29088       53.10642
H         65.61584       55.16580       51.61609
N         62.58586       55.00702       51.08155
C         61.52757       54.43245       50.26509
C         61.29916       55.25030       49.02159
O         61.69396       56.40858       48.96582
C         60.24342       54.38485       51.10033
C         60.31873       53.26802       52.14849
C         59.19203       53.31582       53.14728
N         59.14868       52.40811       54.14769
O         58.32962       54.18002       53.07545
H         62.47815       55.99002       51.37521
H         61.78386       53.40255       49.92503
H         59.34952       54.20230       50.46697
H         60.13157       55.37325       51.59505
H         61.26876       53.34518       52.71600
H         60.30069       52.28827       51.61901
H         59.87499       51.68054       54.22349
H         58.39682       52.44293       54.85106
N         60.68617       54.68926       47.95101
C         60.46446       55.38520       46.69838
C         58.97692       55.40139       46.43748
O         58.37155       54.33507       46.36876
C         61.27956       54.69708       45.57566
C         61.05153       55.34616       44.19942
C         62.78406       54.76098       45.91584
H         60.38985       53.69869       48.01481
H         60.83088       56.42399       46.74500
H         60.95519       53.63553       45.51054
H         61.51949       56.35134       44.14439
H         61.50031       54.70491       43.41084
H         59.97119       55.44266       43.97058
H         63.00053       54.23442       46.86911
H         63.39729       54.29436       45.11844
H         63.10769       55.82062       46.03278
N         58.31776       56.58139       46.26008
C         56.90512       56.66241       45.95484
C         56.76480       56.96933       44.48701
O         57.77112       57.04833       43.80528
C         56.15939       57.65485       46.89327
C         56.18561       59.13010       46.53386
N         57.27415       59.89644       46.74991
O         55.16931       59.65026       46.09726
H         58.85300       57.45230       46.23583
H         56.43240       55.66917       46.11951
H         56.47430       57.50842       47.95015
H         55.09048       57.36345       46.84529
H         58.11405       59.49756       47.17859
H         57.24709       60.90758       46.54017
N         55.55388       57.11868       43.91004
C         55.40311       57.34977       42.47844
C         56.11694       58.62060       42.01734
O         56.76787       58.60836       40.98202
C         53.90566       57.43512       42.15031
C         53.68604       57.57559       40.67185
C         54.06854       56.54365       39.79815
C         53.11225       58.74492       40.15630
C         53.88145       56.68506       38.42282
C         52.92923       58.88598       38.78065
C         53.31438       57.85592       37.90889
O         53.14515       57.98509       36.57874
H         54.71266       57.04787       44.50444
H         55.83338       56.48260       41.93046
H         53.47074       58.29795       42.70278
H         53.38891       56.51406       42.49910
H         54.51163       55.63288       40.18342
H         52.81915       59.54954       40.81972
H         54.18067       55.88575       37.75671
H         52.49198       59.79640       38.39329
H         52.76363       58.78638       36.19339
N         56.00619       59.75991       42.74581
C         56.59155       61.04302       42.35386
C         58.11620       60.95591       42.25576
O         58.70316       61.57848       41.38266
C         56.15200       62.14017       43.35308
C         54.60966       62.25936       43.43489
C         54.18903       63.29023       44.43685
O         54.55500       63.16432       45.72725
O         53.48158       64.22412       44.09607
H         55.48005       59.70060       43.62396
H         56.19133       61.33367       41.35687
H         56.56803       63.12094       43.03211
H         56.55662       61.89895       44.35963
H         54.14187       61.31070       43.76271
H         54.19705       62.50465       42.43172
N         58.80969       60.16877       43.12244
C         60.25135       59.91409       43.03767
C         60.56983       59.07130       41.80697
O         61.51007       59.38506       41.08940
C         60.70327       59.22577       44.35483
C         60.58827       60.26215       45.50236
C         60.78303       59.79791       46.91347
O         60.95195       60.71820       47.87760
O         60.52730       58.65769       47.23541
H         58.27734       59.68879       43.86284
H         60.82630       60.86631       42.97003
H         61.76211       58.88912       44.28878
H         60.07081       58.33331       44.52821
H         59.60194       60.76458       45.48742
H         61.35628       61.02943       45.31473
N         59.80748       57.98859       41.49711
C         60.02878       57.16745       40.32851
H         61.06216       56.76590       40.32835
H         59.31784       56.31106       40.34258
H         59.84079       57.75582       39.40540
H         59.01959       57.75354       42.09545
Ca        60.89839       58.77321       50.34995
O         58.42865       56.98117       50.38408
H         57.86367       56.17277       50.45702
H         58.51318       57.29483       51.31623
O         58.33718       60.55522       49.48696
H         58.63768       61.16404       50.20337
H         57.43999       60.89629       49.24859
O         58.47325       59.91319       52.35461
H         59.45772       59.94588       52.38489
H         58.24774       59.12993       52.90917

Ca 1.70



