%chk=loop3.cluster140.chk
%nprocshared=48
%mem=10GB
%nosave
#b3lyp/svp scf=(tight,noincore) Test 
#IOP(5/87=12) Density=Current Pop=(MK,readradii) iop(6/33=2) iop(6/42=6)

loop3.cluster140 

   0  1 
C         57.99739       54.39634       21.24914
C         57.49862       55.79980       21.42266
O         56.31642       56.00696       21.22415
H         59.04193       54.28814       21.60335
H         57.35429       53.71788       21.85134
H         57.93422       54.09240       20.18343
N         58.34627       56.79161       21.85528
C         57.98593       58.18095       22.19135
C         57.66340       59.06724       20.97744
O         58.38739       60.02174       20.72297
C         56.90952       58.23659       23.29826
C         57.34935       57.47062       24.52405
O         57.56754       58.11976       25.68312
O         57.51332       56.26126       24.47285
H         59.32416       56.52366       22.03871
H         58.89596       58.63818       22.64339
H         55.93439       57.83731       22.94842
H         56.75747       59.30023       23.58426
N         56.59242       58.80269       20.18622
C         56.23727       59.50464       18.95816
C         55.79173       60.94564       19.14492
O         55.50414       61.59430       18.15195
C         55.15551       58.68061       18.19437
C         53.70184       58.67057       18.74948
C         53.57403       58.28507       20.23029
C         52.13319       58.07961       20.69632
N         52.12529       57.59475       22.07947
H         56.04262       58.00124       20.43100
H         57.14156       59.51081       18.30965
H         55.52864       57.63250       18.14438
H         55.09440       59.04123       17.14471
H         53.14360       57.92233       18.14323
H         53.22732       59.66168       18.59120
H         54.03613       59.08195       20.85733
H         54.07716       57.31258       20.38715
H         51.64680       57.31715       20.04873
H         51.56132       59.03043       20.62078
H         52.61051       56.66810       22.13271
H         52.61354       58.27325       22.70872
H         51.13987       57.47174       22.40323
N         55.68499       61.50480       20.38840
C         55.21305       62.87041       20.56430
C         55.92510       63.56467       21.71766
O         56.41478       62.91176       22.62526
C         53.69574       62.82545       20.78044
C         53.10093       64.18568       20.88235
O         52.42447       64.52877       21.98679
O         53.21229       64.97654       19.96002
H         55.84796       60.93396       21.22394
H         55.42329       63.45678       19.64215
H         53.46410       62.24516       21.70070
H         53.21466       62.32043       19.91599
N         56.01504       64.92548       21.71623
C         56.63953       65.67962       22.78388
C         55.81222       65.65207       24.04381
O         54.64212       65.99619       24.00733
H         55.64865       65.45197       20.91307
H         56.70105       66.74304       22.47520
H         57.67884       65.31709       22.95012
N         56.38754       65.26886       25.21080
C         55.69331       65.26320       26.49965
C         56.62657       65.69802       27.64767
O         56.15087       66.35704       28.56134
C         55.08124       63.87617       26.75770
C         54.00929       63.50233       25.75809
N         52.77355       64.05068       25.83081
O         54.24687       62.66524       24.90110
H         57.35369       64.94001       25.15372
H         54.85399       65.99126       26.48312
H         54.60934       63.83608       27.76183
H         55.90532       63.13573       26.70794
H         52.53500       64.71859       26.57795
H         52.04296       63.76724       25.16078
N         57.97105       65.41178       27.64185
C         58.91312       65.86608       28.65528
C         58.71155       65.16858       29.97069
O         58.69432       63.94572       30.00277
H         58.38258       64.88158       26.86981
H         58.86279       66.97227       28.75736
H         59.93918       65.60782       28.31736
N         58.53632       65.90113       31.10998
C         58.26015       65.32708       32.42678
C         56.91648       64.60659       32.48821
O         56.60218       64.06979       33.53822
C         59.40833       64.41788       32.92638
C         60.75088       65.10370       32.84644
C         60.98320       66.30956       33.53170
C         61.78240       64.53887       32.07890
C         62.22426       66.94496       33.43759
C         63.02401       65.17319       31.99181
C         63.24752       66.38071       32.66923
O         64.44064       67.00314       32.58849
H         58.59060       66.92840       31.04513
H         58.18697       66.17276       33.14538
H         59.42380       63.47238       32.34439
H         59.21784       64.14219       33.98796
H         60.20421       66.76037       34.13274
H         61.62435       63.60806       31.54826
H         62.39062       67.87742       33.96217
H         63.81049       64.72737       31.39642
H         65.17075       66.63645       32.06970
N         56.08052       64.56335       31.39993
C         54.75644       63.96168       31.33519
C         53.71255       64.86045       31.99373
O         52.82225       65.33151       31.29634
C         54.73508       62.45896       31.73595
C         55.76682       61.59580       30.94538
C         53.31495       61.89842       31.54198
C         55.64185       61.64453       29.42019
H         56.37975       65.00275       30.53294
H         54.46627       63.97623       30.26054
H         54.98570       62.33993       32.81106
H         55.64562       60.53881       31.26587
H         56.80534       61.89798       31.20384
H         52.94751       62.08492       30.51072
H         53.29086       60.80679       31.74013
H         52.61463       62.38740       32.24875
H         54.60795       61.43170       29.07953
H         55.97035       62.63628       29.05921
H         56.31197       60.88724       28.96086
N         53.76890       65.17658       33.31364
C         52.82381       66.07706       33.95641
C         51.43182       65.48826       33.95229
O         50.48171       66.20576       33.67760
C         53.25973       66.34219       35.40638
O         54.55242       66.88682       35.41047
H         54.51339       64.78166       33.89016
H         52.82312       67.06614       33.44085
H         53.24836       65.38606       35.97729
H         52.55905       67.06796       35.87701
H         54.84367       66.91055       36.35832
N         51.24955       64.16503       34.24932
C         49.93718       63.54616       34.39165
C         49.04301       63.74128       33.17053
O         47.82642       63.73000       33.32534
C         49.29872       64.07887       35.68450
H         52.07501       63.57228       34.41404
H         50.06872       62.45275       34.54569
H         49.12901       65.17473       35.63451
H         48.33454       63.57156       35.89456
H         49.98526       63.87353       36.53572
N         49.57255       63.95505       31.92559
C         48.75122       64.31718       30.77617
C         48.85557       63.33605       29.62043
O         49.80622       62.57071       29.53269
C         49.16196       65.71195       30.30124
H         50.59494       63.92405       31.80030
H         47.67788       64.36463       31.06905
H         48.55892       66.03366       29.42642
H         49.01602       66.44643       31.12208
H         50.23661       65.71177       30.01602
N         47.83435       63.29247       28.71657
C         47.72790       62.40242       27.56065
C         48.01046       60.94583       27.90267
O         48.68894       60.26950       27.13983
C         48.55753       62.88617       26.34488
C         48.49297       64.40555       26.16306
C         49.20102       64.85023       24.92333
O         48.77700       64.55978       23.81372
O         50.31401       65.59228       25.07055
H         47.02704       63.91477       28.88520
H         46.66335       62.47395       27.24192
H         48.16279       62.36958       25.43973
H         49.62889       62.61162       26.46464
H         49.02930       64.85949       27.02686
H         47.45099       64.78394       26.15547
N         47.57681       60.41510       29.07963
C         47.90863       59.06234       29.48100
H         48.75947       59.09224       30.19444
H         47.03486       58.59773       29.98059
H         48.18958       58.42441       28.61542
H         47.08951       61.01878       29.75789
Ca        51.76955       66.48460       23.61258
O         50.02961       67.52810       21.85935
H         49.13500       67.20542       21.59031
H         50.11288       68.43576       21.47562
O         52.31672       67.27607       26.43438
H         53.22025       67.57419       26.70171
H         51.70353       67.83637       26.97047
O         53.74203       68.68725       24.25708
H         53.71485       69.36596       24.97608
H         54.69531       68.63661       23.99535
O         53.14525       67.92826       21.48166
H         52.85575       67.12081       20.99409
H         53.24867       68.61155       20.77540
O         50.15635       68.53722       24.77595
H         49.71035       69.41857       24.75468
H         49.63638       68.01095       25.43349

Ca 1.70



