%chk=loop4.cluster90.chk
%nprocshared=48
%mem=10GB
%nosave
#b3lyp/svp scf=(tight,noincore) Test 
#IOP(5/87=12) Density=Current Pop=(MK,readradii) iop(6/33=2) iop(6/42=6)

loop4.cluster90 

   -3  1 
C         63.86947       22.45065       61.84651
C         64.10353       21.91765       63.23065
O         64.40495       22.69015       64.12617
H         63.05513       23.20510       61.86593
H         64.80234       22.91800       61.47154
H         63.57449       21.64050       61.14547
N         63.96018       20.58639       63.47469
C         64.14345       19.97124       64.78652
C         63.21725       20.60040       65.80669
O         63.65466       20.97829       66.89093
C         65.60867       20.00879       65.26501
C         66.60246       19.42976       64.31199
O         67.89017       19.35032       64.69338
O         66.26778       19.03719       63.20411
H         63.68190       19.96821       62.69767
H         63.85839       18.89789       64.67963
H         65.67606       19.41570       66.20349
H         65.91982       21.05171       65.48022
N         61.89922       20.73043       65.52478
C         60.91980       21.17884       66.50018
C         60.42586       19.90896       67.17043
O         60.09863       18.97563       66.44648
C         59.78575       21.95035       65.77309
C         60.34231       23.23125       65.09526
C         58.63715       22.30753       66.73811
C         59.40349       23.75149       64.00597
H         61.55667       20.35740       64.62189
H         61.39588       21.87897       67.21518
H         59.38687       21.27447       64.98543
H         61.30250       23.01379       64.58176
H         60.54407       24.01879       65.85736
H         58.18804       21.38627       67.16289
H         59.00469       22.94308       67.57278
H         57.82336       22.85024       66.21896
H         59.28477       22.96649       63.22714
H         58.40523       24.01779       64.40346
H         59.84287       24.65052       63.52631
N         60.38292       19.72135       68.51866
C         60.49798       20.76511       69.53383
C         61.71922       20.61873       70.42881
O         62.34230       21.63494       70.69761
C         59.17914       20.86368       70.33785
C         58.54416       19.55636       70.74891
O         57.34408       19.39466       70.58995
O         59.28534       18.54548       71.23575
H         60.15698       18.77233       68.84714
H         60.59348       21.77903       69.10407
H         58.43145       21.37770       69.69329
H         59.32311       21.51975       71.22250
N         62.14567       19.42267       70.92693
C         63.31043       19.33121       71.79700
C         63.08477       20.06276       73.10194
O         62.18740       19.70205       73.85045
H         61.66935       18.55256       70.65620
H         64.19334       19.75355       71.26610
H         63.53744       18.26878       72.02466
N         63.88215       21.11780       73.42459
C         63.76493       21.89101       74.65491
C         63.38350       23.34645       74.32740
O         63.24085       24.15333       75.23584
C         65.15142       21.77608       75.33200
C         65.25020       22.09208       76.79160
O         66.31677       21.91286       77.35848
O         64.17543       22.48066       77.50215
H         64.62933       21.38744       72.76594
H         62.98541       21.44958       75.31606
H         65.88503       22.38855       74.75980
H         65.47097       20.71369       75.26366
N         63.22408       23.74529       73.02469
C         62.99609       25.10883       72.58628
C         64.15460       26.00236       72.96315
O         63.93360       27.15962       73.28089
H         63.32466       23.06133       72.27411
H         62.02310       25.50500       72.94877
H         62.94590       25.09247       71.47286
N         65.42878       25.50497       72.96360
C         66.60830       26.25979       73.38411
C         66.91716       27.44283       72.47595
O         67.46604       28.43098       72.95276
C         66.51466       26.70073       74.86824
C         66.45505       25.52978       75.85876
C         66.46081       26.00222       77.29952
N         66.56498       25.10664       78.30532
O         66.38974       27.19408       77.56374
H         65.57626       24.52297       72.68688
H         67.48474       25.58016       73.29611
H         65.64279       27.37272       75.01950
H         67.43370       27.27228       75.12013
H         67.35026       24.89424       75.69392
H         65.55322       24.91326       75.68333
H         66.66035       24.10831       78.10257
H         66.58127       25.41678       79.28730
N         66.61873       27.42031       71.14752
C         66.90668       28.56222       70.28710
C         68.38087       28.65191       69.95573
O         68.93215       27.74442       69.34642
C         66.00305       28.56890       69.02282
C         64.57259       28.92847       69.45180
C         66.47084       29.59152       67.97054
H         66.12618       26.60219       70.75340
H         66.63476       29.49397       70.83199
H         66.00743       27.57028       68.53292
H         64.19157       28.20499       70.20105
H         64.55611       29.94711       69.90349
H         63.89392       28.92934       68.57516
H         66.64718       30.59044       68.42626
H         67.40486       29.23098       67.49562
H         65.72496       29.69393       67.15547
N         69.05479       29.79355       70.27338
C         70.41756       30.06632       69.84099
C         70.47441       30.08983       68.32295
O         69.49469       30.42811       67.68202
C         70.85937       31.43064       70.41452
C         72.21190       31.87587       69.92635
N         73.33986       31.44844       70.53417
O         72.28650       32.64000       68.97522
H         68.55419       30.52919       70.79555
H         71.09263       29.27140       70.22379
H         70.86178       31.38162       71.52589
H         70.11562       32.20776       70.12854
H         73.28964       30.82409       71.35165
H         74.26115       31.76234       70.19511
N         71.64216       29.79142       67.69540
C         71.76803       29.78195       66.24429
C         72.42365       28.48084       65.79158
O         73.09705       27.83230       66.57562
C         72.62978       31.00109       65.84197
C         72.93584       31.03966       64.36807
C         71.91834       31.27937       63.43050
C         74.24421       30.79159       63.92274
C         72.20607       31.25221       62.06267
C         74.52639       30.75537       62.55714
C         73.50611       30.97898       61.62173
O         73.76433       30.92315       60.30008
H         72.47612       29.59450       68.26500
H         70.77340       29.85879       65.75620
H         73.57988       30.94671       66.41751
H         72.11968       31.94488       66.13639
H         70.90500       31.47182       63.76039
H         75.03802       30.59678       64.63372
H         71.41574       31.42865       61.34470
H         75.53491       30.54080       62.22730
H         74.64433       30.69924       59.96476
N         72.34884       28.11899       64.47586
C         73.18420       27.06704       63.91633
C         73.39961       27.28408       62.41147
O         74.54634       27.50789       62.04879
C         72.73254       25.63651       64.30542
C         73.72378       24.59728       63.74818
C         73.36651       23.19603       64.13703
O         73.36950       22.82559       65.43094
O         73.11685       22.37275       63.27546
H         71.79963       28.70358       63.83837
H         74.19635       27.19541       64.36589
H         71.71362       25.41626       63.93267
H         72.70468       25.54517       65.41352
H         74.74884       24.80584       64.12328
H         73.73521       24.66846       62.63885
N         72.42612       27.21676       61.44806
C         70.99881       26.99187       61.66369
C         70.16996       28.02849       60.90115
O         70.73198       28.83006       60.16482
C         70.63073       25.56699       61.18204
C         70.72238       25.38816       59.65269
C         70.33077       24.00262       59.24623
O         69.12734       23.51872       59.60084
O         71.08416       23.32116       58.56952
H         72.73943       27.31604       60.46974
H         70.74862       27.05710       62.73730
H         69.58745       25.34529       61.49451
H         71.29000       24.83036       61.68979
H         71.74593       25.61051       59.28380
H         70.00879       26.08060       59.16054
N         68.80731       28.00216       60.96618
C         67.97173       28.83172       60.11813
H         67.05646       29.13255       60.66826
H         68.49478       29.74797       59.77059
H         67.65836       28.23791       59.23147
H         68.34484       27.29409       61.55394
Ca        68.97776       19.26681       62.23451
O         70.63730       21.28079       61.75591
H         70.43630       22.21882       61.52253
H         71.61833       21.22576       61.82565
O         67.57471       17.78854       60.41709
H         66.64830       17.56219       60.68035
H         67.54285       17.91943       59.43747
O         68.51757       16.68131       63.14652
H         67.66032       16.90210       63.58742
H         69.05483       16.24887       63.85455
O         71.34622       18.91994       63.82575
H         72.22136       19.37656       63.89519
H         71.56879       17.96095       63.72021
O         68.13119       21.89837       63.06288
H         67.56058       22.64296       62.75030
H         68.43555       22.16740       63.96556
O         70.91441       17.93948       60.77073
H         71.07322       17.58484       59.86163
H         71.81616       18.10429       61.14360
O         68.76428       20.58776       59.78338
H         68.16325       21.29016       60.13760
H         68.49272       20.46926       58.84102

Ca 1.70



