%chk=loop4.cluster112.chk
%nprocshared=48
%mem=10GB
%nosave
#b3lyp/svp scf=(tight,noincore) Test 
#IOP(5/87=12) Density=Current Pop=(MK,readradii) iop(6/33=2) iop(6/42=6)

loop4.cluster112 

   -3  1 
C        104.28223       22.46974       59.42692
C        105.69904       22.96429       59.43734
O        105.95476       24.04410       58.92298
H        103.60274       23.22585       58.97507
H        104.23091       21.54576       58.81330
H        103.93604       22.24827       60.45717
N        106.68767       22.21170       60.01312
C        108.10963       22.56937       59.95511
C        108.44320       23.90805       60.58596
O        109.56701       24.35785       60.43464
C        108.61050       22.47375       58.50071
C        108.58749       21.04088       58.07025
O        107.61447       20.62902       57.23509
O        109.40016       20.25153       58.52756
H        106.42725       21.32911       60.47901
H        108.69889       21.83018       60.54340
H        109.65017       22.84715       58.38322
H        107.95831       23.07679       57.83742
N        107.56239       24.55421       61.39375
C        107.95339       25.70050       62.20091
C        108.53837       25.18050       63.50203
O        107.89107       24.36767       64.14723
C        106.70908       26.58934       62.47736
C        106.27130       27.27516       61.15916
C        106.98795       27.62687       63.58708
C        104.97167       28.06301       61.29800
H        106.66098       24.10406       61.60824
H        108.68731       26.33026       61.65939
H        105.88692       25.93647       62.84704
H        106.10747       26.50087       60.37964
H        107.07474       27.95719       60.79805
H        107.26246       27.12008       64.53664
H        107.80786       28.31319       63.29576
H        106.08153       28.21305       63.82732
H        104.67833       28.47178       60.30932
H        104.16625       27.39369       61.66623
H        105.09136       28.91939       61.99123
N        109.71189       25.64535       64.02114
C        110.58172       26.63509       63.38166
C        111.36607       25.94886       62.28573
O        111.41136       26.43151       61.16230
C        111.54469       27.23554       64.42266
C        110.77703       27.80995       65.58542
O        110.94762       27.29782       66.81919
O        109.97356       28.71288       65.41116
H        109.98937       25.28813       64.94920
H        109.99585       27.50071       63.00063
H        112.15231       28.04222       63.95423
H        112.23427       26.45139       64.79943
N        111.94363       24.74359       62.55632
C        112.59687       23.91097       61.57082
C        113.92540       24.45735       61.14826
O        114.75877       24.75452       61.99241
H        111.83614       24.34834       63.50120
H        111.92732       23.74979       60.69989
H        112.78162       22.91776       62.02593
N        114.20457       24.54938       59.82448
C        115.45208       25.06845       59.28846
C        115.19256       26.25249       58.35880
O        116.14887       26.78728       57.81359
C        116.24842       23.93967       58.57781
C        115.57258       23.19574       57.44652
O        116.20726       22.36573       56.81774
O        114.27872       23.38685       57.14500
H        113.48696       24.22768       59.16335
H        116.11081       25.43514       60.10954
H        116.53211       23.17501       59.33351
H        117.18970       24.38359       58.18663
N        113.92775       26.74171       58.15116
C        113.65358       27.83695       57.23430
C        113.64707       27.40142       55.77641
O        113.52248       28.25439       54.90976
H        113.12738       26.35094       58.66461
H        114.39169       28.64989       57.40612
H        112.64657       28.24961       57.45748
N        113.72206       26.08055       55.43657
C        113.80125       25.56673       54.07513
C        112.69181       26.08996       53.18127
O        112.98144       26.71569       52.16991
C        115.22149       25.77481       53.49904
C        116.25853       25.02140       54.35630
C        117.64581       25.08279       53.77794
N        117.91399       24.53138       52.57075
O        118.54407       25.60893       54.41746
H        113.73733       25.38734       56.18347
H        113.66697       24.46206       54.11052
H        115.47758       26.85525       53.44309
H        115.24196       25.35412       52.46966
H        115.97350       23.94944       54.43486
H        116.26657       25.45360       55.37983
H        117.17248       24.06430       52.02876
H        118.86985       24.55931       52.18646
N        111.38372       25.81238       53.46727
C        110.31636       26.15655       52.52861
C        110.14006       25.04865       51.53183
O        110.27648       23.88585       51.89654
C        108.95053       26.49008       53.19056
C        108.23057       25.27323       53.80440
C        109.09977       27.60805       54.22160
H        111.16855       25.21920       54.28265
H        110.61114       27.07595       51.97492
H        108.28102       26.86979       52.38496
H        107.26079       25.59108       54.24352
H        107.98604       24.52697       53.01706
H        108.83996       24.78345       54.58974
H        108.09897       27.89306       54.61013
H        109.73639       27.27989       55.06968
H        109.55427       28.50223       53.74511
N        109.74425       25.33303       50.26047
C        109.46187       24.27849       49.30684
C        108.01367       23.84328       49.43444
O        107.18761       24.57465       49.97618
C        109.88358       24.71595       47.89005
C        110.08184       23.61449       46.86503
N        110.58751       23.91795       45.65275
O        109.84925       22.44867       47.12909
H        109.58807       26.31572       49.98742
H        110.10992       23.41218       49.57449
H        110.88176       25.18947       47.99098
H        109.17110       25.48306       47.51313
H        110.83440       24.88907       45.41927
H        110.76213       23.16994       44.96531
N        107.68618       22.57601       49.09746
C        106.41569       21.94603       49.38798
C        106.59702       20.43354       49.45530
O        107.60999       19.90140       49.00720
C        105.29377       22.31816       48.37951
C        105.61174       21.94256       46.94358
C        104.98555       20.83513       46.34143
C        106.51275       22.71281       46.18703
C        105.26367       20.50130       45.01083
C        106.77749       22.38471       44.85172
C        106.15323       21.27636       44.26034
O        106.39569       20.95320       42.97268
H        108.45404       21.97885       48.78957
H        106.10564       22.26334       50.41281
H        105.04249       23.40029       48.41833
H        104.37300       21.78155       48.70009
H        104.28876       20.22599       46.90346
H        106.99231       23.57879       46.62365
H        104.78173       19.64272       44.55907
H        107.46259       22.99442       44.27542
H        106.98847       21.47875       42.41622
N        105.65319       19.67734       50.05105
C        105.73103       18.22255       50.15903
C        104.55967       17.59584       49.40643
O        104.82488       16.94308       48.40785
C        105.86986       17.77885       51.64607
C        107.31867       17.87433       52.14619
C        107.39860       18.19134       53.61148
O        107.93769       19.23255       53.95007
O        106.86492       17.41307       54.56881
H        104.84850       20.18200       50.44434
H        106.64112       17.83846       49.63943
H        105.54370       16.72721       51.79714
H        105.25024       18.43091       52.28519
H        107.82490       18.72131       51.63810
H        107.87327       16.94486       51.88935
N        103.24455       17.70240       49.78131
C        102.76020       18.39866       50.96553
C        101.62849       19.36787       50.68740
O        100.85824       19.17891       49.75447
C        102.37906       17.43573       52.10951
C        101.33714       16.37263       51.73891
C        101.98148       15.15695       51.13208
O        102.72284       14.34139       51.90886
O        101.79658       14.87208       49.96090
H        102.54969       17.20683       49.20160
H        103.52425       19.01747       51.40516
H        101.97390       18.07054       52.92567
H        103.28019       16.93421       52.52204
H        100.55746       16.81493       51.08347
H        100.83820       16.02116       52.66547
N        101.45958       20.43101       51.52563
C        100.33924       21.33784       51.43811
H         99.40866       20.80399       51.72647
H        100.49017       22.17350       52.15646
H        100.24402       21.75767       50.41663
H        102.15172       20.59348       52.27374
Ca       107.03663       18.56340       56.50082
O        105.20279       20.49795       55.37095
H        104.21960       20.42943       55.28270
H        105.41547       21.43471       55.13229
O        109.66253       17.62152       56.48444
H        109.87793       17.38489       55.54804
H        110.13527       18.47579       56.64350
O        107.31989       15.98253       57.52842
H        106.47541       15.46906       57.49015
H        107.95098       15.49262       56.94603
O        107.11973       18.21902       59.38583
H        108.03346       18.58573       59.40529
H        107.25182       17.28515       59.67836

Ca 1.70



