%chk=loop3.cluster59.chk
%nprocshared=48
%mem=10GB
%nosave
#b3lyp/svp scf=(tight,noincore) Test 
#IOP(5/87=12) Density=Current Pop=(MK,readradii) iop(6/33=2) iop(6/42=6)

loop3.cluster59 

   0  1 
C         97.70984       47.57500      102.20713
C         99.05761       48.05002      101.77530
O         99.36483       47.94513      100.60037
H         96.94059       48.01489      101.53887
H         97.67717       46.46876      102.12370
H         97.49127       47.87131      103.25374
N         99.94111       48.55163      102.67993
C        101.27298       49.01076      102.30074
C        102.34094       48.06973      102.81278
O        102.08296       47.29409      103.72627
C        101.49640       50.44348      102.83565
C        101.29013       50.52019      104.33330
O        102.06103       49.79827      105.16937
O        100.38914       51.20467      104.79043
H         99.67258       48.57007      103.67649
H        101.37987       49.02601      101.19428
H        100.76869       51.12117      102.34011
H        102.51421       50.80717      102.57825
N        103.59166       48.10804      102.26660
C        104.72375       47.37702      102.82203
C        105.33670       46.36503      101.86048
O        106.22886       45.64189      102.27684
C        105.81179       48.40323      103.19484
C        105.26623       49.50089      104.11663
C        106.30858       50.58381      104.41742
C        105.90892       51.44044      105.63338
N        104.60983       52.09939      105.48799
H        103.76328       48.74095      101.46802
H        104.40802       46.82120      103.73461
H        106.19624       48.87093      102.26128
H        106.65277       47.88286      103.70462
H        104.92425       49.01431      105.05298
H        104.40604       50.00947      103.63667
H        106.46426       51.21254      103.51048
H        107.27633       50.10374      104.67386
H        106.69260       52.20890      105.80852
H        105.87699       50.77431      106.52362
H        104.62799       52.79231      104.70688
H        103.85989       51.39941      105.32131
H        104.37839       52.58666      106.38373
N        104.90948       46.25261      100.56756
C        105.51490       45.31077       99.61707
C        105.86174       45.93853       98.25771
O        106.36888       45.22704       97.39638
C        104.56778       44.11620       99.42409
C        103.25216       44.45718       98.78362
O        102.93584       45.72940       98.47225
O        102.46427       43.56261       98.53171
H        104.11191       46.81867      100.26147
H        106.45758       44.89763      100.03742
H        104.36836       43.64907      100.41399
H        105.07761       43.36285       98.78721
N        105.58298       47.24198       97.97446
C        105.83219       47.83583       96.66424
C        105.32371       49.27396       96.58995
O        104.72191       49.74457       97.54638
H        105.16774       47.82489       98.70877
H        105.28649       47.25220       95.88811
H        106.92058       47.78779       96.45308
N        105.46876       50.05344       95.48302
C        106.22327       49.68546       94.29438
C        105.27496       49.19575       93.20826
O        104.39735       49.95526       92.82215
C        107.00771       50.92355       93.80388
C        108.12366       51.32481       94.74777
N        108.70270       52.53987       94.63344
O        108.51470       50.55207       95.61184
H        105.02876       50.98691       95.49676
H        106.99800       48.96398       94.54387
H        106.29139       51.76769       93.69490
H        107.46138       50.74295       92.80412
H        108.36706       53.21571       93.93258
H        109.46602       52.81193       95.27064
N        105.39009       47.96647       92.61195
C        106.37583       46.95395       92.96959
C        105.73752       45.61564       93.14172
O        104.81339       45.48625       93.92453
H        104.75990       47.75314       91.82199
H        106.87711       47.11461       93.92664
H        107.15302       46.91066       92.18014
N        106.21243       44.55635       92.43689
C        105.68634       43.21057       92.59219
C        106.81572       42.19135       92.59534
O        107.94458       42.50641       92.25561
C        104.81680       42.87553       91.36805
C        103.50306       43.60984       91.27056
C        102.46666       43.32677       92.17313
C        103.27128       44.51588       90.22454
C        101.20858       43.90663       92.01266
C        102.01512       45.11271       90.07572
C        100.97544       44.79849       90.96365
O         99.75083       45.34133       90.81136
H        106.97676       44.71083       91.76422
H        105.10892       43.10925       93.53863
H        104.55887       41.79501       91.35759
H        105.43496       43.07245       90.46422
H        102.61739       42.63407       92.97827
H        104.05718       44.74764       89.51764
H        100.41004       43.64865       92.69688
H        101.84465       45.80206       89.25953
H         99.55284       45.95394       90.08903
N        106.51865       40.90552       92.91753
C        107.43329       39.78508       92.72662
C        106.78218       38.71306       91.84571
O        107.50148       38.01435       91.14144
C        107.95917       39.31990       94.09917
C        106.87808       38.61151       94.94948
C        109.22966       38.47196       93.95358
C        107.18303       38.71585       96.44159
H        105.60337       40.73386       93.31700
H        108.30949       40.16338       92.15762
H        108.25922       40.26377       94.60950
H        106.76005       37.55120       94.63182
H        105.89836       39.10505       94.81621
H        109.01123       37.51629       93.43445
H        109.98702       39.03292       93.36235
H        109.67530       38.25980       94.94592
H        106.34991       38.27176       97.02487
H        108.12889       38.20332       96.70399
H        107.25958       39.79051       96.72222
N        105.41862       38.58194       91.77418
C        104.72529       37.79762       90.76737
C        104.02420       36.58775       91.35771
O        103.40855       35.84594       90.60771
C        103.70729       38.71028       90.04238
O        102.54087       38.91061       90.79978
H        104.82647       39.08768       92.43271
H        105.45623       37.43588       90.01171
H        103.38956       38.23323       89.09459
H        104.17313       39.68665       89.77217
H        102.77382       39.49190       91.55961
N        104.11859       36.30230       92.69370
C        103.56764       35.08855       93.26906
C        102.83731       35.36771       94.56616
O        103.43033       35.88822       95.49954
C        104.71549       34.12883       93.55459
H        104.68160       36.90259       93.30823
H        102.88989       34.57554       92.55103
H        105.24746       33.89876       92.60740
H        105.43384       34.58549       94.26843
H        104.31923       33.18327       93.98163
N        101.54723       34.96317       94.70414
C        100.79988       35.01118       95.95281
C        100.63248       36.43071       96.46069
O        100.82257       36.68423       97.64448
C        101.43254       34.06625       96.99254
H        101.07222       34.54543       93.89068
H         99.79055       34.61056       95.71162
H        101.77683       33.13247       96.49777
H        102.31305       34.53191       97.48665
H        100.68859       33.79239       97.76954
N        100.27868       37.41804       95.59299
C        100.09719       38.80578       95.99861
C         98.66868       39.26468       95.80780
O         98.28730       40.24362       96.43058
C        101.03245       39.71841       95.19072
C        102.49761       39.46416       95.54927
C        103.37566       40.41606       94.82187
O        104.24281       41.19457       95.49465
O        103.30954       40.48713       93.61219
H        100.15819       37.17559       94.59795
H        100.32577       38.93959       97.08009
H        100.80165       40.78369       95.39810
H        100.86663       39.54721       94.09931
H        102.77953       38.43020       95.26715
H        102.65538       39.60696       96.63883
N         97.82078       38.64633       94.94110
C         96.48331       39.14652       94.72939
H         95.90330       39.09266       95.67460
H         96.53371       40.20171       94.38329
H         95.97648       38.54087       93.95090
H         98.12599       37.83367       94.39170
Ca       100.70641       45.22468       96.95721
O        100.03908       42.60949       96.98996
H         99.08389       42.51167       96.75481
H        100.17674       42.03116       97.78047
O         99.68771       45.50993       94.43516
H         98.83841       45.85852       94.06897
H        100.39123       45.87276       93.84213
O         97.97207       45.55117       96.88321
H         97.72793       46.47078       97.15530
H         97.25375       45.26400       96.26698
O        100.42502       47.68421       97.96899
H        100.95163       47.95863       98.75930
H        100.02946       48.51614       97.61174
O        102.41795       43.87269       95.30518
H        103.20921       43.35889       95.58926
H        102.79221       44.72096       94.96815
O        102.31468       47.26027       95.73359
H        102.25853       48.23795       95.87248
H        102.35306       47.14690       94.75146
O         99.93453       44.77887       99.65965
H        100.39532       44.07709      100.18225
H         99.86335       45.53929      100.28508

Ca 1.70



