%chk=loop4.cluster50.chk
%nprocshared=48
%mem=10GB
%nosave
#b3lyp/svp scf=(tight,noincore) Test 
#IOP(5/87=12) Density=Current Pop=(MK,readradii) iop(6/33=2) iop(6/42=6)

loop4.cluster50 

   -3  1 
C         46.55977       36.97490       49.17124
C         46.53512       36.40501       50.55979
O         46.94304       37.08837       51.48653
H         47.59886       37.25994       48.90623
H         46.19110       36.24102       48.42448
H         45.91236       37.87689       49.12768
N         46.04326       35.14869       50.78245
C         45.97068       34.52960       52.11050
C         45.05573       35.31615       53.06341
O         45.11296       35.10022       54.26792
C         47.38263       34.34918       52.72399
C         48.43431       33.97520       51.71444
O         49.39824       34.71111       51.57326
O         48.31552       32.91464       50.89611
H         45.70192       34.59961       49.97955
H         45.55279       33.50644       51.98470
H         47.33458       33.59721       53.54039
H         47.71567       35.31005       53.17327
N         44.23477       36.29624       52.58545
C         43.48037       37.22209       53.42663
C         42.30892       36.55479       54.11664
O         41.52468       35.90196       53.44487
C         43.00643       38.43478       52.55085
C         44.24078       39.34980       52.33320
C         41.81636       39.21847       53.14031
C         44.01574       40.52246       51.38907
H         44.18338       36.43697       51.56671
H         44.16996       37.63135       54.18485
H         42.63688       38.05010       51.57290
H         45.05099       38.73374       51.90075
H         44.60219       39.74938       53.31005
H         40.92671       38.55610       53.22722
H         42.05378       39.64159       54.13373
H         41.51021       40.03228       52.45165
H         45.00091       40.97866       51.15140
H         43.54839       40.17074       50.44731
H         43.38235       41.29973       51.86454
N         42.02364       36.78895       55.43486
C         42.84737       37.58964       56.34882
C         43.93459       36.71444       56.92836
O         45.08470       37.12108       56.98458
C         42.00400       38.09697       57.53383
C         40.84681       38.93598       57.07716
O         41.02634       40.08022       56.69156
O         39.60356       38.42002       57.08674
H         41.13921       36.40098       55.80214
H         43.23993       38.51531       55.87053
H         42.63196       38.70006       58.23139
H         41.61310       37.22795       58.10058
N         43.59787       35.48311       57.41579
C         44.53074       34.60020       58.08287
C         44.97602       35.19106       59.39226
O         44.13828       35.48006       60.23545
H         42.62991       35.15106       57.30445
H         45.38786       34.37769       57.41381
H         44.01346       33.64364       58.31180
N         46.29987       35.41385       59.61616
C         46.81128       35.99851       60.84958
C         47.20359       37.46022       60.61364
O         47.28823       38.21313       61.57545
C         48.00640       35.14332       61.32026
C         48.56393       35.50098       62.66898
O         49.63785       35.03638       63.01614
O         47.85438       36.24983       63.53435
H         46.96961       35.18659       58.86705
H         46.00957       35.98647       61.62256
H         48.80787       35.24386       60.55521
H         47.71860       34.06891       61.36086
N         47.38241       37.95014       59.34694
C         47.59210       39.35718       59.04466
C         48.96924       39.91027       59.38219
O         49.21398       41.06856       59.08568
H         47.29806       37.31704       58.54146
H         46.80170       39.95807       59.54458
H         47.45916       39.48468       57.94867
N         49.92029       39.14043       59.98363
C         51.24809       39.62374       60.37245
C         52.10129       40.05756       59.19143
O         52.90729       40.97485       59.32788
C         51.17868       40.70059       61.47928
C         50.30429       40.23797       62.65451
C         50.35476       41.15580       63.84850
N         49.68494       40.81961       64.97399
O         51.00896       42.18872       63.81715
H         49.70590       38.16086       60.20489
H         51.77313       38.74750       60.81258
H         50.78415       41.66195       61.08159
H         52.21598       40.87385       61.84466
H         50.65530       39.23859       62.98505
H         49.24690       40.15399       62.31912
H         49.14130       39.94442       65.01390
H         49.72422       41.42423       65.80722
N         51.98703       39.43284       57.98939
C         52.80544       39.79674       56.83871
C         54.23057       39.27665       56.94864
O         54.47417       38.27460       57.61351
C         52.18945       39.33714       55.48634
C         51.85918       37.83046       55.44584
C         50.94565       40.16597       55.14172
H         51.25401       38.71859       57.89033
H         52.86769       40.90977       56.79323
H         52.93815       39.54954       54.69059
H         51.53555       37.53829       54.42640
H         52.74449       37.22273       55.72369
H         51.02376       37.56652       56.12682
H         51.20205       41.24832       55.13626
H         50.58568       39.90212       54.12473
H         50.13002       39.99701       55.87532
N         55.22482       39.92136       56.27616
C         56.61853       39.49430       56.25219
C         57.22884       39.81180       54.89587
O         57.01625       40.90307       54.37572
C         57.40739       40.20822       57.36336
C         58.87859       39.84548       57.34536
N         59.28448       38.56371       57.51624
O         59.71056       40.72250       57.16840
H         54.97969       40.79951       55.78840
H         56.69373       38.39928       56.44417
H         56.98263       39.92740       58.35120
H         57.29888       41.30727       57.23652
H         58.60188       37.80783       57.66877
H         60.28856       38.32924       57.49260
N         58.06314       38.92327       54.29454
C         58.72560       39.19180       53.02315
C         58.92171       37.86504       52.32622
O         60.03438       37.50873       51.95941
C         60.05082       39.90654       53.33406
C         60.84898       40.36883       52.14487
C         60.30554       41.29514       51.24117
C         62.17480       39.93532       51.97872
C         61.09464       41.81808       50.21341
C         62.96358       40.46555       50.95643
C         62.43196       41.42714       50.08509
O         63.20531       41.99851       49.14087
H         58.30142       38.05264       54.79989
H         58.06949       39.82974       52.38840
H         60.66445       39.23523       53.97659
H         59.82645       40.81501       53.93212
H         59.28452       41.63671       51.35357
H         62.60788       39.21495       52.66217
H         60.67670       42.55398       49.53858
H         63.99409       40.14809       50.85826
H         64.15801       41.83146       49.09998
N         57.86144       37.02039       52.22985
C         58.03875       35.59949       51.99287
C         57.93703       35.20975       50.52391
O         58.89317       34.61806       50.04512
C         57.10531       34.80659       52.92962
C         57.27806       33.27933       52.89348
C         58.63254       32.82717       53.37095
O         58.77414       32.32879       54.61440
O         59.60025       32.88128       52.62894
H         56.97053       37.33769       52.64471
H         59.05964       35.31961       52.33918
H         56.05079       35.05065       52.70274
H         57.29585       35.14077       53.97717
H         57.06513       32.86318       51.88574
H         56.52047       32.86574       53.59211
N         56.84766       35.42520       49.72065
C         55.63113       36.16413       50.05135
C         55.34614       37.21852       48.97634
O         56.13590       37.36796       48.05117
C         54.44756       35.18221       50.16392
C         54.13041       34.41069       48.87244
C         52.88372       33.60960       49.09019
O         52.85218       32.74960       49.95449
O         51.78127       33.85260       48.36468
H         56.89341       35.02259       48.77117
H         55.70381       36.67282       51.02426
H         53.54339       35.75252       50.46567
H         54.64973       34.45597       50.97923
H         54.96416       33.72951       48.60019
H         53.96635       35.12502       48.03711
N         54.19723       37.95456       49.00912
C         53.83662       38.86317       47.93963
H         52.85697       39.33855       48.16223
H         54.60343       39.65627       47.82358
H         53.73344       38.30191       46.98421
H         53.53580       37.84157       49.79047
Ca        49.81045       33.16707       49.22481
O         50.17978       30.32677       49.94808
H         51.01439       29.96330       49.55890
H         49.90141       29.65604       50.62062
O         50.30839       32.33445       46.54502
H         51.11069       32.63830       46.05090
H         49.63667       32.13803       45.84681
O         47.59341       31.53989       48.38743
H         46.89637       31.16944       48.98456
H         47.77882       30.81967       47.73469

Ca 1.70



