%chk=loop3.cluster198.chk
%nprocshared=48
%mem=10GB
%nosave
#b3lyp/svp scf=(tight,noincore) Test 
#IOP(5/87=12) Density=Current Pop=(MK,readradii) iop(6/33=2) iop(6/42=6)

loop3.cluster198 

   0  1 
C         39.00672       73.10606       60.20535
C         38.34931       72.83262       58.88530
O         38.83527       73.27880       57.85510
H         39.90573       73.74816       60.09855
H         38.28208       73.60688       60.88258
H         39.30506       72.13682       60.65777
N         37.19824       72.10784       58.86345
C         36.46325       71.77386       57.64860
C         35.93456       70.34316       57.74197
O         35.81832       69.80914       58.83588
C         35.32646       72.81185       57.49321
C         34.35424       72.58049       56.36841
O         33.03508       72.74726       56.58871
O         34.75087       72.34289       55.23966
H         36.79105       71.83449       59.76982
H         37.13318       71.85162       56.75920
H         35.80282       73.80138       57.32389
H         34.74652       72.87830       58.43942
N         35.60012       69.66373       56.60743
C         35.00640       68.32634       56.57463
C         33.59175       68.30884       57.15357
O         33.34067       68.93524       58.17365
C         35.85539       67.23814       57.27240
C         35.54747       65.84687       56.66302
C         35.98893       64.66832       57.54426
C         35.10169       64.46544       58.79435
N         33.73542       64.09488       58.43123
H         35.78506       70.11481       55.69935
H         34.95387       68.05574       55.49602
H         35.64936       67.28358       58.36212
H         36.94410       67.40922       57.13006
H         36.06870       65.80089       55.68146
H         34.48375       65.71460       56.42044
H         37.04586       64.81665       57.84486
H         35.92911       63.73471       56.94214
H         35.08052       65.37785       59.42658
H         35.53049       63.64430       59.40273
H         33.16529       63.89756       59.28466
H         33.30166       64.88004       57.92273
H         33.72661       63.25971       57.81058
N         32.62630       67.54643       56.56632
C         31.26235       67.43822       57.08424
C         31.15979       66.84897       58.48965
O         32.15771       66.45330       59.07919
C         30.37768       66.65270       56.07201
C         30.85737       65.29013       55.63582
O         30.49125       64.84051       54.56133
O         31.59029       64.52012       56.45016
H         32.86911       67.04132       55.70208
H         30.83864       68.46322       57.14994
H         30.33559       67.27173       55.15305
H         29.33510       66.54512       56.43199
N         29.95426       66.81309       59.11524
C         29.74495       66.16514       60.40101
C         28.45904       66.61949       61.05051
O         27.95283       67.68247       60.69884
H         29.14377       67.23272       58.63007
H         30.56903       66.38380       61.11537
H         29.72112       65.06652       60.22192
N         27.84967       65.85777       62.00216
C         26.61678       66.27242       62.66087
C         26.70649       66.15039       64.16917
O         26.80943       65.04204       64.67556
C         25.40680       65.45297       62.17131
C         24.92845       65.91675       60.81814
N         25.61317       65.62474       59.69060
O         23.89915       66.57261       60.74467
H         28.25311       64.93357       62.23488
H         26.38747       67.33760       62.43343
H         24.57128       65.65466       62.87827
H         25.59668       64.35602       62.19265
H         26.46292       65.04545       59.72412
H         25.26992       65.96231       58.77867
N         26.56157       67.26018       64.95007
C         26.37941       67.22453       66.39343
C         27.52339       66.60072       67.15558
O         28.64788       67.06556       67.03967
H         26.48225       68.18071       64.48970
H         25.43516       66.68322       66.61536
H         26.25327       68.26756       66.75608
N         27.28175       65.54052       67.99095
C         28.29386       64.88427       68.82479
C         29.40910       64.20652       68.01486
O         30.37539       63.75319       68.61162
C         28.87548       65.86421       69.86449
C         27.81058       66.61665       70.63384
C         27.71893       68.01031       70.49453
C         26.91860       65.95190       71.49735
C         26.76407       68.73335       71.21032
C         25.96635       66.68233       72.22220
C         25.89325       68.07764       72.08404
O         24.99861       68.79703       72.79204
H         26.31422       65.19235       68.06947
H         27.78456       64.08401       69.40755
H         29.53846       66.58353       69.34274
H         29.50861       65.30735       70.59166
H         28.39119       68.53701       69.82973
H         26.96900       64.87721       71.62152
H         26.70940       69.80792       71.09292
H         25.29092       66.16755       72.89502
H         24.41273       68.38560       73.44288
N         29.32351       64.09991       66.65141
C         30.29840       63.48026       65.74949
C         30.28284       61.95334       65.76556
O         30.46304       61.36541       64.70636
C         31.72368       64.10797       65.81138
C         31.67824       65.66117       65.81173
C         32.60470       63.59226       64.65185
C         31.08869       66.29956       64.54701
H         28.50821       64.50178       66.19176
H         29.91837       63.71676       64.73037
H         32.20372       63.80078       66.76603
H         32.70578       66.06177       65.95343
H         31.08348       65.99715       66.68505
H         32.73496       62.49209       64.70430
H         32.14425       63.83175       63.66877
H         33.61535       64.04838       64.69116
H         31.74435       66.11613       63.67081
H         30.06962       65.92164       64.33019
H         31.01426       67.39722       64.69323
N         30.02782       61.23148       66.89415
C         29.99026       59.77509       66.89054
C         31.36226       59.13617       66.65933
O         31.41299       57.92870       66.48079
C         29.35684       59.26756       68.19992
O         30.07760       59.72857       69.31108
H         29.81089       61.71245       67.76830
H         29.31798       59.45244       66.06444
H         29.32497       58.15718       68.20697
H         28.31392       59.66130       68.24420
H         29.54415       59.47318       70.10897
N         32.51414       59.88154       66.65492
C         33.84795       59.31948       66.43249
C         34.06847       58.83380       64.99462
O         35.06174       58.16416       64.73913
C         34.18684       58.27074       67.51016
H         32.46436       60.88977       66.84643
H         34.58529       60.13636       66.58360
H         35.27601       58.05000       67.50023
H         33.94091       58.68037       68.51531
H         33.63794       57.31720       67.37379
N         33.20137       59.17284       63.99221
C         33.37019       58.74266       62.60562
C         34.40515       59.55196       61.83981
O         34.56849       60.73609       62.10347
C         32.04690       58.91023       61.84988
H         32.36880       59.73081       64.22317
H         33.61003       57.65666       62.58108
H         31.24582       58.33033       62.35258
H         31.74767       59.98146       61.81452
H         32.14747       58.53517       60.80902
N         35.03043       58.98593       60.76319
C         35.85238       59.72082       59.80218
C         37.01781       60.47064       60.43016
O         37.51193       61.41716       59.82895
C         34.98353       60.64009       58.90985
C         33.94751       59.83240       58.10384
C         33.29177       60.67172       57.04820
O         31.95496       60.68595       56.91208
O         33.97808       61.31746       56.27228
H         34.86837       57.98561       60.57404
H         36.30514       58.98541       59.09937
H         35.66560       61.12518       58.17439
H         34.48838       61.43719       59.50317
H         33.18203       59.38126       58.77141
H         34.47623       59.01531       57.57213
N         37.55111       60.07483       61.61667
C         38.64998       60.79435       62.22124
H         39.52376       60.81006       61.53460
H         38.33539       61.83735       62.44101
H         38.94623       60.30257       63.17040
H         37.17454       59.24838       62.10265
Ca        31.11959       62.00461       55.28555
O         33.16944       60.78563       53.64499
H         33.51621       61.31930       52.88740
H         33.24562       59.84345       53.35318
O         30.68119       62.26307       52.33394
H         29.94986       62.63972       51.78401
H         30.62468       61.28609       52.18604
O         29.65605       59.84472       54.48781
H         29.67744       59.54916       53.54436
H         29.91454       59.04618       55.01151

Ca 1.70



