%chk=loop2.cluster158.chk
%nprocshared=48
%mem=10GB
%nosave
#b3lyp/svp scf=(tight,noincore) Test 
#IOP(5/87=12) Density=Current Pop=(MK,readradii) iop(6/33=2) iop(6/42=6)

loop2.cluster158 

   -2  1 
C        108.26187       63.09004       -4.79252
C        106.81377       63.45882       -4.81660
O        105.99216       62.55381       -4.85470
H        108.87435       63.79182       -4.19768
H        108.35536       62.10078       -4.29307
H        108.62584       62.98131       -5.83334
N        106.36587       64.74160       -4.74889
C        107.16231       65.95804       -4.63952
C        106.75466       66.95034       -5.71748
O        105.57122       67.09836       -5.94305
C        106.97859       66.52358       -3.20589
C        105.57596       66.68544       -2.64602
O        104.58304       66.49960       -3.32598
O        105.42469       67.00417       -1.34766
H        105.35417       64.86176       -4.71526
H        108.24846       65.77700       -4.75481
H        107.50790       67.49589       -3.11411
H        107.48211       65.79435       -2.53762
N        107.70210       67.63684       -6.43947
C        107.44450       68.66292       -7.46281
C        106.93538       69.97169       -6.85109
O        107.62746       70.97771       -6.93462
C        106.57261       68.13956       -8.61498
H        108.69192       67.43031       -6.24491
H        108.42978       68.90475       -7.92494
H        107.02293       67.21022       -9.02621
H        105.53319       67.92140       -8.29899
H        106.53446       68.89092       -9.43394
N        105.72620       70.02261       -6.22973
C        105.16808       71.18351       -5.55178
C        104.76693       70.84024       -4.11848
O        104.95804       69.71108       -3.68781
C        103.98344       71.70788       -6.38367
C        102.90331       70.71913       -6.78030
O        102.84022       69.46130       -6.29777
O        102.05297       71.07800       -7.57590
H        105.14189       69.19981       -6.25892
H        105.91939       72.00520       -5.48674
H        104.42929       72.09055       -7.32614
H        103.50167       72.56731       -5.87411
N        104.23412       71.80425       -3.31008
C        103.92265       71.59506       -1.90160
C        102.48524       71.93449       -1.56872
O        102.00384       72.97315       -2.00045
H        104.10315       72.75346       -3.68998
H        104.55834       72.30067       -1.32744
H        104.16809       70.56914       -1.55407
N        101.77757       71.15361       -0.69468
C        100.43402       71.50335       -0.23197
C        100.46016       72.05977        1.17245
O        101.41383       71.83806        1.90658
C         99.48028       70.29601       -0.32941
C         98.99563       70.11535       -1.73302
N         98.26674       71.09720       -2.31350
O         99.22632       69.08138       -2.33893
H        102.24145       70.33346       -0.27398
H        100.03947       72.35110       -0.82680
H         98.56452       70.47279        0.27109
H         99.98441       69.38145        0.06461
H         98.03043       71.95022       -1.78268
H         97.92673       71.00228       -3.27890
N         99.44529       72.88134        1.58045
C         99.52193       73.62594        2.82579
C         98.17705       74.19227        3.25054
O         97.46426       74.71458        2.40427
H         98.66611       73.07130        0.92935
H        100.22471       74.47220        2.67697
H         99.92487       72.94531        3.58905
N         97.72456       74.12104        4.54027
C         98.50746       73.62030        5.67626
C         98.15813       72.18763        6.01030
O         98.74967       71.64365        6.93155
C         98.30575       74.51656        6.92204
C         98.98771       75.87156        6.76164
O         96.93941       74.71259        7.18908
H         96.75299       74.42276        4.72198
H         99.59347       73.63186        5.47122
H         98.80212       74.04547        7.80326
H         96.61969       73.91918        7.69099
H         98.56606       76.43286        5.90353
H         98.84994       76.46091        7.69297
H        100.07960       75.72725        6.60534
N         97.23160       71.50145        5.28494
C         96.81534       70.13745        5.56057
C         96.08714       70.07038        6.88860
O         96.73997       70.15639        7.91936
C         97.97484       69.10911        5.51987
C         98.87689       69.26052        4.27537
C         97.40255       67.68095        5.62869
C         98.11454       69.36060        2.95551
H         96.77525       71.96113        4.48504
H         96.12919       69.86892        4.73873
H         98.64074       69.24029        6.40069
H         99.56905       68.39236        4.25577
H         99.50707       70.17496        4.35982
H         96.81304       67.57040        6.56322
H         96.73818       67.44017        4.77417
H         98.22332       66.93593        5.67195
H         97.28435       68.63145        2.89196
H         97.70352       70.38699        2.83166
H         98.81957       69.16618        2.12984
N         94.73632       69.93128        6.98548
C         93.81114       69.90867        5.85259
C         93.77418       68.53796        5.24537
O         94.12657       68.37291        4.08399
C         92.39596       70.41209        6.25701
C         91.66533       69.71711        7.39454
O         92.22866       69.58172        8.61090
O         90.51899       69.33432        7.23096
H         94.35857       69.90925        7.93539
H         94.14417       70.64264        5.08467
H         91.74725       70.37207        5.35199
H         92.50875       71.47449        6.54548
N         93.34933       67.49746        6.00121
C         93.30572       66.13443        5.53355
C         91.84727       65.67485        5.49573
O         91.01298       66.33389        6.10485
C         94.23477       65.30728        6.44962
C         93.80980       65.21238        7.90423
C         94.13431       66.21721        8.84397
C         93.13053       64.06639        8.34049
C         93.78068       66.06092       10.19195
C         92.78169       63.91659        9.68453
C         93.10912       64.90915       10.61057
H         93.04286       67.67911        6.96124
H         93.71166       66.08659        4.50468
H         95.25248       65.75117        6.41458
H         94.37498       64.28822        6.05503
H         94.67177       67.10880        8.54262
H         92.87827       63.28643        7.63457
H         94.03641       66.82541       10.91653
H         92.26500       63.02348       10.00844
H         92.84665       64.78136       11.65358
N         91.42928       64.59017        4.77139
C         92.28944       63.70845        4.00417
C         92.80913       64.29831        2.70479
O         92.56828       65.45808        2.39415
C         91.37732       62.49130        3.77910
C         89.99589       63.10400        3.67717
C         90.04232       64.16403        4.77235
H         93.15919       63.35992        4.58168
H         91.65360       61.80804        2.94962
H         91.38532       61.90107        4.72222
H         89.92624       63.60987        2.68781
H         89.15282       62.38596        3.77558
H         89.31825       64.97468        4.53238
H         89.82028       63.73262        5.77267
N         93.53073       63.48726        1.87951
C         94.06048       63.87826        0.58604
C         95.51285       63.37155        0.40386
O         95.84710       63.02684       -0.72130
C         93.13892       63.18914       -0.47086
C         91.69252       63.73640       -0.48659
C         91.50489       64.72635       -1.59881
O         91.43683       66.04417       -1.33955
O         91.42341       64.33023       -2.75197
H         93.64579       62.49955        2.15050
H         94.02932       64.97887        0.42342
H         93.10629       62.10889       -0.20957
H         93.55001       63.24792       -1.50309
H         91.39893       64.16948        0.48864
H         90.96996       62.91208       -0.66989
N         96.45300       63.25473        1.40040
C         96.30939       63.63466        2.79296
H         96.18152       64.73142        2.89145
H         95.49876       63.08293        3.30110
H         97.24299       63.35471        3.33428
H         97.36858       62.85805        1.13415
Ca       102.95053       67.39909       -5.37326
O        102.82775       66.52152       -7.98700
H        102.29943       66.92720       -8.71676
H        102.45555       65.61026       -7.89237
O        100.17677       67.87119       -5.87590
H         99.36028       68.17413       -5.40643
H        100.04280       68.13686       -6.82001
O        102.09360       68.90001       -3.34913
H        101.30287       69.47228       -3.50056
H        102.14234       68.75302       -2.37326
O        103.40564       64.39354       -5.96122
H        104.21253       64.18940       -6.50030
H        103.41462       63.73338       -5.22367
O        101.10675       65.38156       -4.23100
H        100.57761       64.60639       -4.54558
H        101.10817       65.30343       -3.24430

Ca 1.70



