%chk=loop3.cluster74.chk
%nprocshared=48
%mem=10GB
%nosave
#b3lyp/svp scf=(tight,noincore) Test 
#IOP(5/87=12) Density=Current Pop=(MK,readradii) iop(6/33=2) iop(6/42=6)

loop3.cluster74 

   0  1 
C        111.10589       65.60650       18.61403
C        110.80591       66.41057       17.38427
O        109.73417       66.26164       16.81832
H        112.07282       65.91525       19.06555
H        110.30733       65.74545       19.37199
H        111.17410       64.53465       18.33622
N        111.74546       67.25351       16.87790
C        111.55042       67.99150       15.63501
C        112.02211       67.19789       14.44404
O        112.60479       66.13099       14.59658
C        112.20277       69.40112       15.67563
C        113.68051       69.47231       16.00283
O        114.39948       68.37187       16.29588
O        114.23478       70.55934       16.00592
H        112.66882       67.25193       17.32457
H        110.46061       68.13949       15.46134
H        111.65843       70.02378       16.41356
H        112.07074       69.88350       14.68327
N        111.74829       67.66346       13.19699
C        112.11630       66.95812       11.98504
C        111.44942       65.58794       11.95405
O        112.09516       64.62667       11.57516
C        111.77324       67.84991       10.77037
C        112.18979       67.22729        9.43717
C        112.02469       68.22804        8.28623
C        112.27000       67.53351        6.94239
N        112.11428       68.46599        5.82821
H        111.22793       68.55230       13.10778
H        113.22005       66.82018       11.96604
H        112.33210       68.80582       10.89919
H        110.68607       68.08786       10.74318
H        111.55620       66.33453        9.25925
H        113.25502       66.90961        9.47666
H        112.75062       69.06338        8.42034
H        110.99762       68.65222        8.29132
H        111.53963       66.70269        6.82229
H        113.29530       67.10354        6.92722
H        112.33727       67.96664        4.93710
H        111.12747       68.81058        5.78505
H        112.76840       69.27435        5.93830
N        110.15466       65.43966       12.35924
C        109.44969       64.15178       12.36400
C        108.50813       64.05386       11.18157
O        107.70684       63.12506       11.12563
C        108.71020       63.93772       13.70639
C        107.61712       64.93103       14.00594
O        106.92670       64.82496       15.15530
O        107.32836       65.81073       13.21112
H        109.63402       66.28194       12.63444
H        110.16366       63.30480       12.25884
H        109.45086       63.94876       14.53337
H        108.23225       62.93664       13.69829
N        108.61551       64.91956       10.13969
C        107.82861       64.77400        8.93420
C        108.38072       65.62133        7.80179
O        109.16907       66.52453        8.05300
H        109.35570       65.63392       10.16732
H        106.75782       65.00434        9.13130
H        107.92300       63.71430        8.63095
N        108.09475       65.36285        6.49867
C        107.20564       64.28691        6.05395
C        105.76166       64.62818        6.41512
O        105.49214       65.78521        6.70635
C        107.37989       64.12799        4.52089
C        108.78898       63.71662        4.13276
N        109.12704       63.61302        2.82835
O        109.62791       63.47872        4.99092
H        108.57466       65.93497        5.78671
H        107.50984       63.33335        6.52961
H        107.14960       65.10272        4.03749
H        106.68944       63.37883        4.09756
H        108.43584       63.81239        2.09145
H        110.08204       63.33166        2.55941
N        104.74921       63.70770        6.40597
C        104.90919       62.28012        6.16832
C        105.56582       61.54415        7.31752
O        105.91857       62.15182        8.31848
H        103.79163       64.04805        6.58928
H        105.44087       62.08622        5.22270
H        103.89522       61.83608        6.06437
N        105.69082       60.18692        7.24858
C        106.24493       59.36352        8.32333
C        107.28980       58.43655        7.71896
O        107.16326       57.22106        7.80614
C        105.09467       58.54869        8.93817
C        104.01359       59.45414        9.45761
C        104.13615       60.05812       10.71652
C        102.87918       59.71196        8.67193
C        103.12420       60.89285       11.19549
C        101.87551       60.55678        9.14520
C        101.99004       61.14221       10.41446
O        101.01477       61.94056       10.89076
H        105.32852       59.70575        6.41017
H        106.70181       59.99794        9.10987
H        105.44658       57.87269        9.74838
H        104.67241       57.90537        8.13344
H        105.00421       59.86971       11.32988
H        102.78217       59.26908        7.68780
H        103.21978       61.34215       12.17562
H        101.00937       60.75363        8.52678
H        100.20702       62.10873       10.38491
N        108.30435       58.96341        6.98841
C        109.02927       58.15741        6.00341
C        110.33822       57.54465        6.48619
O        110.97168       56.86434        5.68969
C        109.30764       59.00580        4.72772
C        107.97684       59.46971        4.08448
C        110.27522       60.17858        5.02096
C        108.17877       60.09370        2.70749
H        108.31579       59.98879        6.90211
H        108.37898       57.31068        5.67916
H        109.80327       58.33480        3.99109
H        107.43437       60.18782        4.73738
H        107.32755       58.57824        3.94227
H        109.84748       60.91375        5.72992
H        111.22283       59.80052        5.45878
H        110.54369       60.71856        4.09398
H        107.19201       60.30496        2.24611
H        108.73597       61.04376        2.78420
H        108.73792       59.39385        2.05085
N        110.82068       57.73545        7.74861
C        112.15842       57.26589        8.13931
C        112.99278       58.29421        8.92816
O        114.19385       58.10338        9.05563
C        112.06521       55.92149        8.89412
O        111.63550       56.04552       10.21904
H        110.21320       58.18954        8.42898
H        112.72486       57.04175        7.20955
H        113.07561       55.46626        8.92432
H        111.39512       55.21681        8.35623
H        110.75289       56.48141       10.20531
N        112.40767       59.36324        9.54735
C        113.08566       60.26656       10.47772
C        113.20425       59.66891       11.89108
O        113.60353       60.37932       12.80382
C        112.23483       61.54475       10.58375
H        111.40820       59.50178        9.43876
H        114.07739       60.56923       10.07640
H        112.09999       62.00508        9.58075
H        111.22753       61.31584       10.99831
H        112.72994       62.28052       11.24525
N        112.81883       58.38209       12.14327
C        112.68109       57.77530       13.46107
C        111.52995       58.44195       14.17488
O        111.68599       58.96622       15.26916
C        113.99797       57.71628       14.24113
H        112.52689       57.80474       11.36288
H        112.36685       56.71680       13.31232
H        113.83602       57.16228       15.19182
H        114.75206       57.15863       13.64556
H        114.39043       58.72250       14.48256
N        110.31028       58.43147       13.56590
C        109.12437       59.07725       14.10242
C        108.11630       58.04282       14.57129
O        107.57996       58.20200       15.65897
C        108.53989       60.11535       13.11209
C        107.84823       59.61258       11.83641
C        108.74920       59.00870       10.82105
O        108.76668       57.67348       10.66673
O        109.17338       59.71691        9.92670
H        110.23131       57.93370       12.67116
H        109.39698       59.67733       14.99914
H        109.33605       60.84453       12.83935
H        107.75080       60.66642       13.66493
H        107.39000       60.49959       11.34829
H        107.02466       58.91111       12.06894
N        107.84564       56.92765       13.83090
C        106.97118       55.86984       14.29814
H        106.09069       55.79315       13.62895
H        107.52344       54.90547       14.27844
H        106.62131       56.03375       15.33881
H        108.29757       56.79574       12.91799
Ca       104.85813       66.83624       16.06425
O        107.29534       68.09801       15.51916
H        108.12624       68.51753       15.84954
H        107.49853       67.84411       14.58670
O        106.68650       66.25952       18.12979
H        106.72189       66.96181       18.82462
H        107.44310       66.47155       17.53279
O        104.64341       67.59661       13.41764
H        105.11470       67.24305       12.62339
H        104.65317       68.57975       13.30598
O        102.05849       67.04419       16.19503
H        101.37571       67.61273       15.76014
H        101.61869       66.16631       16.32029
O        103.54849       64.76291       14.51378
H        104.13571       64.31673       13.85396
H        102.81407       64.11977       14.67697
O        104.15288       64.61958       17.61317
H        103.46603       64.06610       17.16527
H        104.18628       64.28277       18.54220

Ca 1.70



