%chk=loop3.cluster78.chk
%nprocshared=48
%mem=10GB
%nosave
#b3lyp/svp scf=(tight,noincore) Test 
#IOP(5/87=12) Density=Current Pop=(MK,readradii) iop(6/33=2) iop(6/42=6)

loop3.cluster78 

   0  1 
C        100.75283       39.77819      103.49223
C        101.43918       41.09711      103.66074
O        101.74947       41.72827      102.66597
H         99.82485       39.94715      102.90546
H        101.40507       39.06499      102.94757
H        100.47139       39.34380      104.47344
N        101.70233       41.58751      104.90302
C        102.24551       42.92445      105.11769
C        103.67368       42.91049      105.60766
O        104.22794       41.86822      105.92550
C        101.34613       43.75205      106.08817
C        101.02292       43.07273      107.39928
O        101.47317       43.58751      108.55928
O        100.28717       42.09870      107.42270
H        101.49843       40.99434      105.71722
H        102.29718       43.47436      104.15719
H        100.38747       44.00639      105.59405
H        101.84454       44.71752      106.32144
N        104.32029       44.10487      105.68877
C        105.64264       44.28863      106.25721
C        106.72923       43.65308      105.41556
O        107.64402       43.07656      105.98990
C        105.83331       45.78770      106.51545
C        107.12247       46.11853      107.25457
C        107.02815       47.52895      107.85152
C        108.38694       48.07032      108.30716
N        109.07747       47.18565      109.24629
H        103.81171       44.94717      105.37768
H        105.65183       43.80863      107.26148
H        104.97447       46.08947      107.15805
H        105.78223       46.37582      105.57103
H        107.96468       46.02910      106.53613
H        107.27606       45.40522      108.09447
H        106.30548       47.50615      108.70068
H        106.63585       48.24038      107.09229
H        108.22603       49.06481      108.77936
H        109.02216       48.21138      107.40634
H        109.99368       47.62219      109.49590
H        108.50956       47.05244      110.11333
H        109.28106       46.26170      108.80202
N        106.61454       43.58000      104.05583
C        107.48059       42.70309      103.26818
C        108.05432       43.30488      101.98925
O        108.95507       42.69942      101.42362
C        106.73620       41.37451      103.00978
C        105.42810       41.46090      102.26739
O        104.79869       40.43756      102.05416
O        104.94235       42.62714      101.81391
H        105.79098       44.01003      103.61326
H        108.37628       42.43469      103.86948
H        106.51387       40.91552      103.99762
H        107.40010       40.68656      102.44719
N        107.58715       44.46609      101.45421
C        108.14374       45.00216      100.21199
C        107.36531       46.19917       99.70621
O        106.54228       46.72567      100.44049
H        106.79193       44.93518      101.90312
H        108.06820       44.20969       99.44594
H        109.21353       45.27242      100.34898
N        107.50375       46.68801       98.44067
C        108.45561       46.23519       97.42617
C        107.71903       45.65714       96.22354
O        106.76428       46.27963       95.77869
C        109.20730       47.47930       96.90939
C        110.17525       48.06741       97.89828
N        110.49250       49.38020       97.83146
O        110.71620       47.35364       98.72986
H        106.87068       47.45830       98.17201
H        109.17922       45.50056       97.82480
H        108.45340       48.25259       96.63051
H        109.77426       47.25416       95.98052
H        110.04993       49.99084       97.12846
H        111.17811       49.78407       98.48536
N        108.11886       44.52150       95.56928
C        109.25621       43.68612       95.93599
C        108.78637       42.49799       96.73821
O        107.91504       42.65534       97.57360
H        107.59621       44.25150       94.72294
H        110.10794       44.24066       96.37452
H        109.68194       43.28687       94.98919
N        109.21059       41.24385       96.40688
C        108.55546       40.04010       96.90369
C        109.54419       38.92993       97.20869
O        110.51604       38.75409       96.49301
C        107.59060       39.49743       95.82352
C        106.36730       40.37036       95.65013
C        105.14064       39.99737       96.22909
C        106.44010       41.56932       94.93040
C        104.02627       40.82980       96.13421
C        105.31972       42.39906       94.82783
C        104.11466       42.03754       95.44338
O        103.04168       42.84842       95.38097
H        109.91162       41.14072       95.66171
H        107.94909       40.24119       97.81878
H        107.24961       38.49815       96.15329
H        108.11230       39.34493       94.85472
H        105.04742       39.09092       96.79000
H        107.36528       41.86077       94.45421
H        103.10136       40.54399       96.61919
H        105.38858       43.32697       94.27839
H        103.08986       43.72390       94.97348
N        109.24451       38.05052       98.20390
C        110.00224       36.82541       98.44558
C        109.80451       35.83907       97.29128
O        110.79820       35.41715       96.70701
C        109.70730       36.26443       99.87849
C        110.20989       37.24727      100.97497
C        108.22865       35.94115      100.16842
C        111.73259       37.41717      100.98712
H        108.41347       38.23877       98.77331
H        111.08265       37.06387       98.44823
H        110.26943       35.31238       99.99750
H        109.93197       36.83614      101.96825
H        109.72618       38.24647      100.87752
H        108.13093       35.48626      101.17616
H        107.59876       36.84843      100.17694
H        107.81878       35.21056       99.45786
H        112.22123       36.41994      101.01461
H        112.09857       37.98282      100.10671
H        112.03716       37.98389      101.89080
N        108.55802       35.47107       96.86352
C        108.31494       34.66615       95.66317
C        107.70494       33.29698       95.94771
O        107.56669       32.51674       95.02143
C        107.38857       35.43267       94.68288
O        106.05130       35.49426       95.11782
H        107.75189       35.82940       97.37984
H        109.28209       34.48581       95.14221
H        107.37253       34.88855       93.71559
H        107.77370       36.45574       94.48288
H        106.03689       35.76450       96.06552
N        107.32277       32.94022       97.20924
C        106.77935       31.62064       97.51997
C        105.78334       31.70336       98.65774
O        106.06459       32.35538       99.65076
C        107.90871       30.68595       97.94076
H        107.47448       33.59236       97.98199
H        106.29263       31.16212       96.63111
H        108.47114       31.10693       98.80011
H        107.48249       29.70094       98.23479
H        108.60169       30.52228       97.08940
N        104.62589       30.97161       98.59742
C        103.62622       30.86745       99.66863
C        102.72075       32.08374       99.82409
O        101.65866       31.95708      100.41973
C        104.27233       30.50377      101.01623
H        104.48287       30.36964       97.77368
H        102.95814       30.02782       99.37365
H        104.87256       31.34740      101.41851
H        103.49804       30.27464      101.77578
H        104.93945       29.62509      100.89657
N        103.10757       33.30621       99.37759
C        102.38405       34.53535       99.67186
C        101.22095       34.79968       98.73392
O        100.39242       35.63837       99.06252
C        103.36284       35.73041       99.74376
C        104.26981       35.94520       98.51011
C        105.22579       37.07525       98.74890
O        105.22445       37.75874       99.90888
O        106.05485       37.34434       97.90622
H        104.02119       33.37849       98.95073
H        101.95282       34.44600      100.69597
H        104.03515       35.54879      100.61064
H        102.78672       36.66145       99.93966
H        103.66123       36.12708       97.59843
H        104.92467       35.07394       98.31149
N        101.09449       34.14163       97.54642
C         99.96929       34.35256       96.65427
H         99.19882       35.02906       97.08305
H        100.32748       34.79105       95.70001
H         99.48492       33.37646       96.44480
H        101.82648       33.48263       97.24710
Ca       103.14474       42.46031      100.48183
O        105.49650       41.88411       99.12380
H        105.50533       41.39426       98.27395
H        105.88967       42.75762       98.89160
O        102.77549       39.87586       99.17896
H        102.04774       39.20988       99.10865
H        103.60348       39.34706       99.09895
O        101.96036       43.74096       98.32886
H        102.37850       43.07527       97.72916
H        102.16980       44.61832       97.92456
O        104.55815       44.63054       99.51443
H        104.56426       45.27563      100.26162
H        104.42155       45.16723       98.69615
O        102.12552       44.80208      101.49185
H        102.06792       44.96775      102.46405
H        101.29686       45.19054      101.11769
O        100.58539       41.55307       99.84213
H         99.97157       42.07576       99.26967
H        100.13412       40.68400       99.98093

Ca 1.70



