%chk=loop2.cluster182.chk
%nprocshared=48
%mem=10GB
%nosave
#b3lyp/svp scf=(tight,noincore) Test 
#IOP(5/87=12) Density=Current Pop=(MK,readradii) iop(6/33=2) iop(6/42=6)

loop2.cluster182 

   -2  1 
C         81.37283       48.64626       55.76125
C         80.94326       48.45770       54.33875
O         79.89345       47.87299       54.10959
H         82.33205       49.20138       55.81948
H         80.60046       49.20166       56.33347
H         81.51740       47.64469       56.21698
N         81.73058       48.90456       53.31665
C         81.39906       48.66860       51.91769
C         80.06295       49.30095       51.60237
O         79.91929       50.51355       51.67778
C         82.52742       49.19059       51.00565
C         82.29042       49.01945       49.52541
O         81.17675       48.42154       49.05813
O         83.12092       49.43864       48.73565
H         82.60904       49.39394       53.54482
H         81.33330       47.56713       51.76804
H         83.46163       48.64423       51.26743
H         82.68103       50.26990       51.21101
N         79.02721       48.49360       51.25965
C         77.66427       48.95538       51.06775
C         76.74289       48.08827       51.92629
O         77.19772       47.06897       52.43025
C         77.36601       48.83763       49.56689
H         79.20941       47.48274       51.15466
H         77.55938       50.01260       51.38371
H         76.32836       49.06177       49.28202
H         78.01654       49.55652       49.02307
H         77.59608       47.81340       49.20574
N         75.43186       48.37768       52.15260
C         74.73446       49.58174       51.69751
C         75.18080       50.83529       52.43979
O         75.79903       50.73548       53.49111
C         73.21265       49.33242       51.73974
C         72.71858       48.85178       53.06995
O         72.67699       49.67860       54.13194
O         72.36554       47.68852       53.18597
H         74.90237       47.67498       52.68992
H         74.94538       49.75060       50.63490
H         73.02819       48.50790       51.01442
H         72.62086       50.20934       51.40874
N         74.93030       52.06787       51.90491
C         75.39056       53.30647       52.52742
C         76.90134       53.46639       52.43104
O         77.53399       52.63867       51.79140
H         74.40888       52.13050       51.01568
H         75.02148       53.34678       53.57053
H         74.95445       54.15254       51.95959
N         77.57978       54.53182       52.96138
C         77.03040       55.56987       53.83037
C         77.99529       55.76225       54.99262
O         78.70333       56.75851       55.05901
C         76.83170       56.88967       53.06204
C         75.67609       56.79829       52.10250
N         74.41925       56.57588       52.56342
O         75.86875       56.93937       50.90530
H         78.58829       54.59964       52.74849
H         76.04718       55.28841       54.26206
H         77.77431       57.16291       52.53992
H         76.58064       57.70350       53.77919
H         74.23742       56.46711       53.57277
H         73.62632       56.50850       51.90950
N         78.02865       54.83219       55.97555
C         78.89193       54.97466       57.14931
C         78.48249       54.15230       58.36465
O         79.00042       54.42608       59.44062
H         77.35412       54.07451       55.88318
H         78.80325       56.02661       57.49889
H         79.95531       54.79957       56.87616
N         77.52545       53.18204       58.30395
C         76.90811       52.59734       59.47971
C         76.43001       51.19189       59.18921
O         76.23936       50.82842       58.03582
C         75.68834       53.45891       59.91595
C         76.09417       54.70374       60.71457
O         74.88587       53.79779       58.80325
H         77.13401       52.89818       57.40730
H         77.65438       52.49363       60.29892
H         75.05811       52.87234       60.61714
H         75.22159       54.65134       58.41378
H         76.71572       55.39900       60.11654
H         75.18166       55.24401       61.04489
H         76.65947       54.38665       61.61632
N         76.21063       50.33934       60.22363
C         75.73130       48.97801       60.04819
C         74.37866       48.79708       60.70682
O         73.84078       49.72580       61.30032
C         76.75978       47.93616       60.60213
C         78.06083       47.83239       59.77481
C         77.09997       48.20275       62.07898
C         77.83119       47.43704       58.31283
H         76.39085       50.67725       61.18246
H         75.54146       48.75387       58.98139
H         76.30397       46.92854       60.55676
H         78.69096       47.03805       60.23146
H         78.62216       48.78936       59.80719
H         76.18241       48.38707       62.67647
H         77.61656       47.32271       62.51303
H         77.77056       49.08254       62.17654
H         78.80984       47.28869       57.81104
H         77.25289       46.49148       58.24740
H         77.29814       48.23428       57.76060
N         73.77300       47.58402       60.62689
C         72.47398       47.27890       61.19277
C         72.23983       45.77749       61.19092
O         72.52841       45.09594       60.21588
C         71.32245       47.97644       60.44929
C         71.47245       47.85445       58.96310
O         72.31320       48.68105       58.31206
O         70.86028       46.99895       58.34590
H         74.26282       46.82968       60.12687
H         72.44582       47.60797       62.25698
H         71.26611       49.05500       60.70408
H         70.36176       47.52269       60.78824
N         71.65656       45.21916       62.27763
C         71.34173       43.80444       62.42628
C         72.61560       42.96255       62.45703
O         73.52524       43.32063       63.18696
C         70.55527       43.67247       63.74648
C         69.99068       42.30810       64.01849
C         70.81641       41.24255       64.41650
C         68.60667       42.10496       63.90356
C         70.25716       39.99081       64.68900
C         68.05503       40.85402       64.16958
C         68.87791       39.79676       64.56302
H         71.37720       45.85978       63.03850
H         70.66152       43.49413       61.60540
H         69.70257       44.38326       63.65646
H         71.16387       44.00948       64.61401
H         71.88387       41.38240       64.53026
H         67.95653       42.91747       63.60184
H         70.89165       39.17256       65.00254
H         66.98768       40.70873       64.07298
H         68.44484       38.82911       64.77401
N         72.73584       41.79684       61.73804
C         73.91403       40.94765       61.83112
C         75.04234       41.43278       60.94798
O         76.07659       40.77148       60.90995
C         73.37049       39.58839       61.37263
C         72.34613       39.97670       60.31791
C         71.68570       41.21391       60.93178
H         74.28316       40.84713       62.87436
H         74.13737       38.85136       61.04457
H         72.80574       39.14596       62.22340
H         72.91483       40.29107       59.41533
H         71.63461       39.17201       60.02993
H         71.32997       41.88323       60.11811
H         70.84564       40.92968       61.59998
N         74.92995       42.55231       60.17964
C         76.00050       42.97151       59.29502
C         77.19481       43.48958       60.07386
O         78.29723       43.46029       59.54911
C         75.51601       43.97784       58.25167
C         74.38284       43.37214       57.40440
C         74.01471       44.33383       56.33681
O         73.63400       45.56127       56.73161
O         74.02943       44.01284       55.15666
H         74.04982       43.08676       60.18327
H         76.32974       42.07778       58.71945
H         76.36491       44.23122       57.58164
H         75.16264       44.91342       58.74587
H         73.47316       43.23199       58.02923
H         74.66989       42.38462       56.98299
N         77.04957       43.97711       61.34020
C         78.19398       44.32433       62.15459
H         78.90741       44.96490       61.59637
H         77.85853       44.86086       63.06663
H         78.70335       43.38928       62.47271
H         76.11058       44.09055       61.74744
Ca        72.55883       47.23910       55.74790
O         74.84340       48.51528       56.47528
H         75.66828       48.46311       55.93301
H         74.73067       49.47455       56.68482
O         70.48494       45.60200       55.02875
H         70.89135       44.87220       54.49786
H         69.99931       46.15655       54.36794

Ca 1.70



