%chk=loop3.cluster39.chk
%nprocshared=48
%mem=10GB
%nosave
#b3lyp/svp scf=(tight,noincore) Test 
#IOP(5/87=12) Density=Current Pop=(MK,readradii) iop(6/33=2) iop(6/42=6)

loop3.cluster39 

   0  1 
C         75.50548       51.77116       24.34198
C         75.19270       50.33157       24.11183
O         75.89077       49.66813       23.36108
H         76.38536       52.09174       23.75016
H         74.62173       52.37668       24.04160
H         75.69691       51.92307       25.42392
N         74.13066       49.79016       24.75951
C         73.62058       48.44180       24.55973
C         72.72295       48.44676       23.31755
O         71.51006       48.32786       23.42097
C         72.88884       48.06979       25.85914
C         72.21461       46.75115       25.82131
O         71.00268       46.72586       25.91307
O         72.90191       45.59712       25.69886
H         73.62084       50.40282       25.41526
H         74.44685       47.70795       24.43180
H         72.10601       48.83783       26.04803
H         73.59972       48.08594       26.71285
N         73.29141       48.64765       22.10008
C         72.57892       48.74931       20.83018
C         72.10614       47.35554       20.40398
O         71.03334       47.21996       19.83377
C         73.59208       49.35252       19.82611
C         73.06643       49.76629       18.45041
C         72.42259       51.16626       18.41457
C         72.03356       51.49826       16.96321
N         71.58441       52.88130       16.80902
H         74.31037       48.72691       22.06614
H         71.72821       49.45858       20.93607
H         74.39363       48.59726       19.68439
H         74.06896       50.25373       20.28033
H         72.39928       48.98188       18.03915
H         73.96193       49.84202       17.79562
H         73.17110       51.91379       18.76642
H         71.53165       51.22678       19.07644
H         71.22635       50.80210       16.64840
H         72.91021       51.34356       16.29371
H         71.22125       53.00640       15.83563
H         70.82386       53.10532       17.48916
H         72.39109       53.53403       16.94529
N         72.86270       46.26395       20.73683
C         72.44307       44.86932       20.55357
C         71.17345       44.52044       21.33536
O         70.53574       43.52456       21.01769
C         73.59029       43.90363       20.95924
C         74.01824       44.01060       22.40798
O         73.98570       42.92692       23.20439
O         74.44938       45.06103       22.85017
H         73.77689       46.44378       21.16112
H         72.23554       44.72354       19.46933
H         74.47555       44.12647       20.32716
H         73.28294       42.85441       20.76053
N         70.74012       45.31024       22.35804
C         69.47871       45.11594       23.05118
C         69.44143       43.87657       23.90892
O         68.60960       43.01330       23.67285
H         71.30524       46.11828       22.62798
H         68.65393       45.11369       22.30633
H         69.31235       45.97534       23.73541
N         70.31143       43.74294       24.95191
C         70.31142       42.59947       25.85689
C         70.32371       43.00348       27.35772
O         70.36586       42.11938       28.20241
C         71.47891       41.67476       25.44346
C         72.76010       41.88353       26.20445
N         73.29780       40.85566       26.90114
O         73.31218       42.97070       26.20119
H         71.03570       44.44644       25.06185
H         69.39066       42.00451       25.67176
H         71.66206       41.77683       24.34818
H         71.15584       40.62534       25.59914
H         72.84121       39.93087       26.90545
H         74.16623       40.98329       27.43823
N         70.26193       44.31850       27.75210
C         70.17987       44.76612       29.14385
C         71.50284       45.00922       29.87020
O         71.46368       45.23261       31.07064
H         70.08414       45.02000       27.03787
H         69.54506       44.06012       29.71955
H         69.65833       45.74783       29.16782
N         72.70466       44.97457       29.22595
C         73.98952       45.03044       29.93859
C         75.02313       45.80872       29.13394
O         75.17485       45.51212       27.96974
C         74.49515       43.58347       30.04291
C         73.64978       42.70811       30.93925
C         73.71642       42.84240       32.33655
C         72.82882       41.71493       30.38442
C         73.00014       41.96689       33.16245
C         72.10427       40.85180       31.20812
C         72.20029       40.96427       32.60139
O         71.53679       40.10864       33.40552
H         72.71620       44.76419       28.21942
H         73.90570       45.45588       30.96326
H         75.53755       43.55046       30.42639
H         74.51074       43.16099       29.01344
H         74.34787       43.59994       32.78385
H         72.75287       41.60836       29.31530
H         73.08009       42.05545       34.23874
H         71.48106       40.08640       30.76280
H         71.00360       39.38436       33.04641
N         75.85544       46.72996       29.70937
C         76.91959       47.39352       28.94131
C         78.26252       46.77108       29.26533
O         78.60104       46.62533       30.42881
C         76.96338       48.92919       29.18593
C         75.60747       49.56187       28.80640
C         78.13543       49.55906       28.38686
C         75.54679       51.06329       29.08949
H         75.79365       46.90375       30.72245
H         76.75064       47.26624       27.84864
H         77.14445       49.12527       30.26607
H         74.81817       49.08286       29.42403
H         75.37660       49.38083       27.73462
H         78.08149       49.28876       27.30927
H         78.17963       50.65989       28.47697
H         79.10194       49.20186       28.79478
H         75.82206       51.26565       30.14686
H         76.22187       51.62980       28.41711
H         74.51598       51.43033       28.91072
N         79.12230       46.48714       28.24240
C         80.47561       45.98898       28.45236
C         81.49551       47.07066       28.15347
O         81.13416       48.16070       27.75723
C         80.71749       44.76870       27.55297
O         80.62289       45.14385       26.20369
H         78.83127       46.70090       27.28165
H         80.62054       45.69925       29.51322
H         79.96340       43.99003       27.80471
H         81.72878       44.34653       27.73207
H         80.20191       44.39308       25.71294
N         82.81320       46.81735       28.37709
C         83.86661       47.80354       28.15570
C         83.99462       48.13417       26.67241
O         84.00923       49.30353       26.30817
C         85.19098       47.24879       28.70653
H         83.06917       45.89978       28.76335
H         83.63255       48.71220       28.75516
H         85.90658       48.07635       28.89271
H         85.01709       46.74432       29.68375
H         85.64619       46.50991       28.01494
N         84.04759       47.12338       25.75526
C         84.11068       47.31968       24.30534
C         82.93355       48.13827       23.79597
O         83.13455       49.12003       23.09785
C         84.11038       45.94846       23.60871
H         84.00518       46.15413       26.11218
H         85.05779       47.83504       24.03174
H         84.99834       45.36192       23.92837
H         83.19830       45.36821       23.87248
H         84.14778       46.06577       22.50499
N         81.66837       47.77945       24.13514
C         80.47024       48.51303       23.72029
C         80.50421       49.96210       24.16621
O         80.05450       50.82245       23.42047
C         79.23144       47.80833       24.30155
C         79.00808       46.46777       23.57314
C         77.89114       45.66039       24.14514
O         77.19739       46.11633       25.19500
O         77.57462       44.60377       23.62243
H         81.55777       46.96072       24.74830
H         80.37184       48.50951       22.61165
H         78.31792       48.43242       24.17850
H         79.39346       47.66187       25.38857
H         79.92414       45.84709       23.58967
H         78.74743       46.69472       22.51589
N         81.02409       50.31035       25.37041
C         81.07794       51.68237       25.81801
H         81.73116       52.27509       25.14255
H         80.05661       52.11706       25.83304
H         81.49836       51.72267       26.84541
H         81.41100       49.58430       25.97667
Ca        75.11303       45.41371       25.44215
O         76.68565       43.05342       26.95630
H         76.76383       42.07947       26.79669
H         77.13868       43.20157       27.82432

Ca 1.70



