%chk=loop2.cluster52.chk
%nprocshared=48
%mem=10GB
%nosave
#b3lyp/svp scf=(tight,noincore) Test 
#IOP(5/87=12) Density=Current Pop=(MK,readradii) iop(6/33=2) iop(6/42=6)

loop2.cluster52 

   -2  1 
C         86.37982       78.63060       23.84125
C         87.85393       78.85635       23.96942
O         88.32262       79.93514       23.63610
H         85.86453       79.56645       23.53524
H         86.20663       77.85677       23.06527
H         85.95658       78.28724       24.80825
N         88.65348       77.86567       24.45988
C         90.10037       77.99560       24.57954
C         90.44821       78.50788       25.96118
O         91.07843       77.81579       26.74960
C         90.76664       76.65751       24.20350
C         92.26614       76.76508       24.13513
O         92.78954       77.58489       23.39669
O         93.03747       75.93723       24.86472
H         88.21222       76.98940       24.78033
H         90.47306       78.74923       23.84949
H         90.40433       76.36320       23.19617
H         90.47262       75.86334       24.92557
N         90.10004       79.78062       26.28145
C         90.41343       80.41909       27.54503
C         89.16931       81.16979       28.03115
O         88.20909       81.26509       27.27663
C         91.61709       81.33326       27.24843
H         89.67052       80.36522       25.55229
H         90.70202       79.66368       28.30588
H         92.45941       80.69068       26.90964
H         91.37383       82.04220       26.42930
H         92.00894       81.92142       28.08710
N         89.07303       81.75272       29.25787
C         90.09308       81.70265       30.30273
C         90.11058       80.34545       30.99596
O         89.28593       79.49791       30.68047
C         89.82726       82.83819       31.31032
C         89.56261       84.14800       30.60294
O         90.44574       84.69578       29.96186
O         88.30041       84.64965       30.62232
H         88.21323       82.29059       29.44590
H         91.07738       81.90676       29.87997
H         90.67385       82.94818       32.02320
H         88.91248       82.58613       31.88020
N         91.03636       80.07540       31.96490
C         91.07842       78.80781       32.68688
C         91.34832       77.64441       31.75620
O         91.93290       77.86205       30.70450
H         91.73100       80.79656       32.20521
H         90.12596       78.67007       33.23234
H         91.89492       78.84102       33.44220
N         91.00629       76.35709       32.06177
C         90.39110       75.92834       33.31924
C         88.88834       76.22508       33.41791
O         88.28860       75.87422       34.42618
C         90.69643       74.42833       33.55756
C         92.19229       74.21345       33.68917
N         92.75202       74.01846       34.90619
O         92.90569       74.25253       32.69728
H         91.26763       75.62835       31.37933
H         90.88063       76.45548       34.16705
H         90.28539       73.77290       32.75642
H         90.21655       74.12123       34.51081
H         92.17285       74.02540       35.75801
H         93.77237       73.90224       34.99800
N         88.21694       76.88797       32.43121
C         86.81384       77.25858       32.54302
C         86.60859       78.32334       33.59463
O         85.82518       78.12622       34.51285
H         88.71012       77.15725       31.57213
H         86.18751       76.36084       32.73906
H         86.48486       77.69760       31.57643
N         87.25282       79.51781       33.47265
C         87.07769       80.63206       34.39327
C         86.29052       81.68187       33.63182
O         86.75834       82.79711       33.47924
C         88.49785       81.10630       34.84603
C         88.50473       82.19741       35.92401
O         89.21522       80.00399       35.33663
H         87.85935       79.66488       32.65626
H         86.48009       80.32804       35.27921
H         89.01996       81.49946       33.94140
H         90.18004       80.23141       35.25308
H         89.56073       82.46092       36.16041
H         87.99901       83.12579       35.59499
H         88.02705       81.82066       36.85145
N         85.10785       81.34483       33.02710
C         84.49775       82.22092       32.02995
C         83.63439       83.29476       32.68025
O         83.28951       83.18140       33.84783
C         83.72065       81.42029       30.91278
C         84.52582       80.23501       30.30394
C         82.36955       80.88542       31.41252
C         85.79845       80.64285       29.57416
H         84.76254       80.38071       33.12613
H         85.33187       82.73719       31.51551
H         83.47674       82.11524       30.08447
H         83.89518       79.69681       29.56162
H         84.78917       79.50652       31.09558
H         82.49922       80.19567       32.26963
H         81.70631       81.72284       31.71118
H         81.84887       80.34586       30.59135
H         86.46532       81.19918       30.25519
H         86.33511       79.73164       29.23128
H         85.55661       81.25572       28.68011
N         83.21474       84.35024       31.93194
C         82.32499       85.40732       32.40351
C         80.89522       85.18120       31.88519
O         80.64613       84.17288       31.25761
C         82.95330       86.78273       32.03735
C         83.15759       87.03437       30.55552
O         84.36909       86.91629       29.93637
O         82.20673       87.42325       29.89729
H         83.55066       84.40758       30.97088
H         82.23112       85.36650       33.51039
H         83.92691       86.88290       32.55446
H         82.31176       87.60117       32.43298
N         79.90014       86.07310       32.17897
C         78.47067       85.92440       31.84256
C         78.18518       85.70057       30.36736
O         77.78470       84.59774       30.00550
C         77.75207       84.88544       32.74095
C         76.26580       85.23021       32.82113
C         75.36149       84.94967       31.77267
C         75.79202       85.91541       33.95441
C         74.02609       85.35494       31.86227
C         74.45763       86.31991       34.03485
C         73.57583       86.04171       32.98992
H         80.15787       86.91301       32.71139
H         78.00005       86.88877       32.13704
H         78.17835       85.01117       33.75839
H         77.93747       83.82473       32.45740
H         75.66730       84.42333       30.88664
H         76.46597       86.16118       34.76490
H         73.34069       85.14193       31.05113
H         74.11108       86.86010       34.90538
H         72.54390       86.36119       33.05278
N         78.34040       86.67476       29.42435
C         78.08711       86.43308       28.02079
C         79.01748       85.37181       27.46950
O         78.68168       84.73427       26.48589
C         78.23687       87.81130       27.36575
C         79.04034       88.63757       28.37121
C         78.73355       88.02853       29.73777
H         77.04309       86.07055       27.86807
H         78.66707       87.80898       26.33802
H         77.22366       88.26055       27.32080
H         80.11120       88.43835       28.16390
H         78.86360       89.73591       28.31666
H         79.65008       88.07271       30.36299
H         77.88632       88.52105       30.25928
N         80.19926       85.11737       28.08836
C         81.12687       84.10541       27.61008
C         80.59550       82.68689       27.83923
O         80.86424       81.81318       27.02669
C         82.47598       84.34760       28.29684
C         83.65284       83.70247       27.56862
C         84.96186       84.17760       28.12873
O         85.31995       83.85322       29.37800
O         85.71003       84.85909       27.44634
H         80.47835       85.70332       28.88591
H         81.28609       84.29036       26.52767
H         82.38809       84.03199       29.34345
H         82.67192       85.44184       28.26499
H         83.60770       84.02787       26.50830
H         83.59355       82.59758       27.61679
N         79.81640       82.39459       28.92210
C         79.23910       81.09090       29.17410
H         78.23287       81.03392       28.70811
H         79.89487       80.27063       28.81851
H         79.09515       80.96058       30.27096
H         79.55852       83.14231       29.56267
Ca        86.53761       86.11189       30.21641
O         86.93687       85.85181       32.90883
H         86.04875       85.70445       33.31452
H         87.22972       84.94479       32.65893
O         89.23415       87.46242       30.85917
H         89.78691       86.76498       31.29085
H         89.81767       87.83411       30.15182
O         88.68504       86.03011       27.77130
H         89.47245       85.43767       27.84565
H         88.30040       85.80033       26.88972
O         86.64360       88.52650       28.38386
H         86.41141       88.46922       27.42313
H         86.82797       89.48638       28.54082

Ca 1.70



