%chk=loop3.cluster139.chk
%nprocshared=48
%mem=10GB
%nosave
#b3lyp/svp scf=(tight,noincore) Test 
#IOP(5/87=12) Density=Current Pop=(MK,readradii) iop(6/33=2) iop(6/42=6)

loop3.cluster139 

   0  1 
C         57.37148       55.87171       22.67029
C         57.00578       57.29443       22.97592
O         55.84182       57.56150       23.23480
H         58.33444       55.61083       23.15628
H         56.58965       55.18214       23.05422
H         57.46417       55.73166       21.57229
N         57.98061       58.25437       23.02267
C         57.76165       59.67097       23.32415
C         57.23426       60.47341       22.13338
O         57.77887       61.53375       21.86594
C         56.96576       59.93228       24.62341
C         57.58023       59.24007       25.81114
O         58.73857       59.46667       26.12482
O         56.84637       58.38363       26.54685
H         58.95791       57.94882       22.89732
H         58.76693       60.11017       23.52498
H         55.90532       59.62604       24.51795
H         56.97515       61.02532       24.82809
N         56.20546       60.02275       21.35523
C         55.70050       60.78162       20.21403
C         55.17471       62.13118       20.64924
O         55.52511       63.12993       20.02561
C         54.68368       59.98463       19.34813
C         53.26366       59.72337       19.89156
C         53.18579       58.71511       21.04321
C         51.73442       58.49142       21.48344
N         51.67951       57.64538       22.67604
H         55.80565       59.10866       21.53621
H         56.55797       60.95483       19.52553
H         55.14489       59.01926       19.04295
H         54.54315       60.58168       18.41981
H         52.66552       59.30844       19.05013
H         52.79843       60.68694       20.18900
H         53.72769       59.11536       21.91630
H         53.63283       57.74334       20.73215
H         51.14516       58.02437       20.66096
H         51.27967       59.47708       21.72376
H         52.30845       58.02932       23.41923
H         50.70182       57.63780       23.04571
H         51.96921       56.66843       22.44210
N         54.39673       62.25721       21.76258
C         53.97197       63.54457       22.28302
C         54.56032       63.79156       23.67121
O         55.00317       62.85457       24.32951
C         52.44173       63.59678       22.29491
C         51.94831       64.87673       22.85591
O         51.24510       64.81928       23.98843
O         52.19887       65.94199       22.31698
H         54.13262       61.40696       22.28891
H         54.33827       64.36572       21.62575
H         52.06301       62.77012       22.93927
H         52.02575       63.46584       21.27538
N         54.67718       65.06601       24.13475
C         55.34549       65.42268       25.36687
C         54.47512       65.33569       26.59818
O         53.36361       65.84590       26.59625
H         54.39768       65.84248       23.51529
H         55.60827       66.49834       25.29935
H         56.31157       64.87761       25.46879
N         55.01465       64.84385       27.74435
C         54.43094       65.04640       29.07408
C         55.50870       65.31762       30.13935
O         55.25850       66.14961       31.00043
C         53.44690       63.94450       29.48926
C         52.17799       63.97899       28.68910
N         51.12559       64.69272       29.14943
O         52.08658       63.35117       27.64355
H         55.98852       64.54309       27.66929
H         53.84703       65.99972       29.05604
H         53.13778       64.14940       30.53574
H         53.89478       62.93132       29.48328
H         51.19450       65.25041       30.00971
H         50.23780       64.68800       28.66047
N         56.77444       64.78660       30.05704
C         57.89232       65.28999       30.84862
C         57.83666       64.85033       32.28726
O         57.88331       63.65630       32.54689
H         57.00170       64.09358       29.33666
H         57.90983       66.39799       30.75761
H         58.84130       64.91197       30.41434
N         57.67195       65.77783       33.28246
C         57.43495       65.44520       34.69461
C         56.13997       64.63895       34.88810
O         55.85423       64.23881       36.00374
C         58.65799       64.76391       35.34848
C         59.90208       65.58722       35.12400
C         60.22557       66.66684       35.96704
C         60.72831       65.29597       34.03014
C         61.36440       67.44115       35.70873
C         61.85431       66.07425       33.76857
C         62.17689       67.15073       34.60550
O         63.26058       67.91141       34.35190
H         57.64659       66.77427       33.02070
H         57.29774       66.40250       35.24424
H         58.80581       63.73838       34.95055
H         58.48491       64.65278       36.44350
H         59.59876       66.90900       36.81731
H         60.48619       64.47442       33.36946
H         61.61140       68.27215       36.35873
H         62.47135       65.84315       32.91047
H         63.82943       67.74114       33.58687
N         55.30525       64.40680       33.82717
C         54.03494       63.70110       33.79438
C         52.93865       64.44784       34.52129
O         52.09012       65.03259       33.86426
C         54.11517       62.18131       34.11971
C         55.28855       61.45941       33.41713
C         52.78750       61.49156       33.71316
C         55.28709       61.58104       31.89507
H         55.56495       64.79002       32.92453
H         53.73848       63.74691       32.72217
H         54.29196       62.01217       35.20510
H         55.21995       60.38198       33.68933
H         56.26310       61.82082       33.80996
H         52.35409       61.93647       32.79097
H         52.91505       60.40401       33.54316
H         52.03573       61.57536       34.49752
H         56.04040       60.88411       31.47426
H         54.29545       61.32244       31.47258
H         55.55381       62.61302       31.59434
N         52.87596       64.45591       35.87714
C         51.78051       65.09061       36.60238
C         50.46768       64.34849       36.34820
O         49.41665       64.97385       36.30181
C         52.10346       65.09507       38.10972
O         53.33224       65.72273       38.40791
H         53.59817       63.96299       36.41394
H         51.69441       66.15362       36.27968
H         52.16643       64.04312       38.46140
H         51.29120       65.61528       38.65825
H         53.61684       66.29515       37.64744
N         50.48571       63.00123       36.11577
C         49.32978       62.15671       35.81103
C         48.48827       62.58550       34.60240
O         47.40886       62.04347       34.41558
C         48.49854       61.90203       37.06859
H         51.39366       62.52970       36.18193
H         49.71768       61.14730       35.55010
H         47.97057       62.80981       37.41596
H         47.75966       61.09491       36.86425
H         49.17080       61.52823       37.87328
N         48.94624       63.50688       33.70698
C         48.20704       63.87365       32.50208
C         48.43938       62.89557       31.35997
O         49.53693       62.38110       31.19847
C         48.60072       65.28463       32.05451
H         49.87481       63.91849       33.84341
H         47.11531       63.92877       32.71634
H         48.15265       65.51987       31.06440
H         48.22058       66.02678       32.78926
H         49.70277       65.38581       31.97992
N         47.40912       62.63651       30.50065
C         47.47819       61.79881       29.30415
C         47.98160       60.39058       29.57409
O         48.65699       59.82031       28.72663
C         48.20334       62.51253       28.13638
C         47.51016       63.85286       27.81076
C         48.12383       64.54735       26.63194
O         47.59600       64.49076       25.53220
O         49.22641       65.29477       26.83098
H         46.50263       63.08947       30.68861
H         46.42937       61.66827       28.95864
H         48.13999       61.86663       27.23098
H         49.27764       62.65383       28.37514
H         47.57199       64.54486       28.67829
H         46.43779       63.65748       27.60304
N         47.67751       59.76043       30.74319
C         48.11389       58.40980       31.03317
H         48.99841       58.44438       31.70172
H         47.29555       57.86209       31.54552
H         48.37011       57.84481       30.11093
H         47.16812       60.27303       31.47778
Ca        50.64610       66.33318       25.45925
O         48.54298       67.25429       24.30245
H         47.92404       67.93044       24.66779
H         47.97760       66.48959       24.03514
O         49.84577       67.69931       28.47214
H         49.54375       67.31029       29.33051
H         50.03276       68.64837       28.68217
O         49.51957       69.51637       26.08976
H         48.67624       69.73556       26.56030
H         50.07924       70.32623       26.18933
O         52.41679       68.40515       23.99319
H         52.47402       69.31944       23.62174
H         51.71836       67.97423       23.44369
O         52.41596       68.80422       27.03253
H         53.29623       68.98786       26.61878
H         52.19896       69.63137       27.53150

Ca 1.70



