%chk=loop2.cluster195.chk
%nprocshared=48
%mem=10GB
%nosave
#b3lyp/svp scf=(tight,noincore) Test 
#IOP(5/87=12) Density=Current Pop=(MK,readradii) iop(6/33=2) iop(6/42=6)

loop2.cluster195 

   -2  1 

C         39.78777       45.37763        2.12742
C         38.60542       45.69402        3.02279
O         38.55477       46.80126        3.50536
H         40.69162       45.11856        2.72897
H         39.59130       44.57883        1.40249
H         40.04929       46.30810        1.56467
N         37.60722       44.82887        3.33634
C         37.40189       43.47739        2.90613
C         36.60203       42.74974        3.95352
O         35.73871       43.33224        4.61588
C         36.73545       43.35154        1.52464
C         35.54148       44.23643        1.31211
O         35.21356       44.56360        0.18368
O         34.80286       44.63572        2.35504
H         36.94791       45.18139        4.03882
H         38.38836       42.96656        2.84646
H         36.40959       42.31375        1.30638
H         37.53130       43.57843        0.80175
N         36.94579       41.46034        4.17722
C         36.39562       40.50009        5.11439
C         35.01936       39.99730        4.74640
O         34.77909       38.80244        4.81537
C         36.51885       40.95717        6.54713
H         37.73435       41.12346        3.62052
H         37.05624       39.61772        5.05095
H         36.38116       40.08333        7.21734
H         37.55787       41.34206        6.66164
H         35.74219       41.70648        6.79269
N         34.07995       40.87054        4.30792
C         32.72479       40.54683        3.93286
C         32.23867       41.42310        2.81420
O         32.43577       42.62953        2.84086
C         31.75344       40.55675        5.10344
C         31.69551       41.80761        5.92765
O         32.49800       42.89730        5.67689
O         31.01065       41.77016        6.94102
H         34.35271       41.81237        4.16186
H         32.73156       39.52366        3.53624
H         32.06999       39.72838        5.76511
H         30.71790       40.33003        4.75345
N         31.58133       40.80322        1.78474
C         31.19597       41.33587        0.48276
C         30.13141       42.40902        0.43027
O         29.56785       42.64426       -0.62258
H         31.39267       39.80358        1.92550
H         30.78543       40.47148       -0.09786
H         32.09089       41.70720       -0.03451
N         29.89214       43.16378        1.51549
C         28.87028       44.17387        1.62944
C         29.43763       45.56240        1.43037
O         28.99485       46.51878        2.06191
C         28.28366       43.97167        3.03306
C         29.27810       44.00959        4.19317
N         29.07214       43.21973        5.24984
O         30.23709       44.77319        4.20553
H         30.41878       42.99257        2.33435
H         28.13235       44.04058        0.82608
H         27.77962       42.98011        3.06891
H         27.50907       44.71680        3.19081
H         28.25925       42.58927        5.30474
H         29.69851       43.32252        6.04132
N         30.48627       45.70288        0.57742
C         31.29436       46.87539        0.39518
C         31.90015       47.31968        1.69339
O         32.28205       46.36931        2.67140
H         30.77239       44.88225        0.04613
H         30.69663       47.69624        0.00251
H         32.10103       46.63057       -0.31359
N         32.47655       48.65750        1.80454
C         31.96355       49.73535        0.89673
C         32.90618       50.91008        0.91439
O         32.73450       51.85112        0.14534
C         30.49403       50.10807        1.23502
C         30.31717       50.89362        2.51354
O         29.85072       50.75543        0.17659
H         32.68902       48.86072        2.80824
H         31.99479       49.35633       -0.13760
H         29.95611       49.16880        1.39875
H         28.89068       50.51713        0.31122
H         30.80807       50.32739        3.33531
H         30.72078       51.91266        2.40242
H         29.23004       51.01715        2.69553
N         33.93574       50.92523        1.79437
C         34.84023       52.01179        2.01837
C         34.13576       53.36720        2.13905
O         34.17039       54.15586        1.20331
C         35.93708       52.01937        0.96360
C         36.40111       50.60436        0.55313
C         37.07807       52.90801        1.48882
C         37.46805       50.65135       -0.52634
H         34.16265       50.07832        2.32140
H         35.32252       51.78315        2.98459
H         35.48800       52.43922        0.04562
H         35.55241       50.08585        0.08554
H         36.70044       49.98934        1.42852
H         36.67412       53.84895        1.91321
H         37.69081       52.44316        2.29286
H         37.73170       53.15299        0.64522
H         37.66857       49.63907       -0.93373
H         37.14743       51.31670       -1.36103
H         38.39004       51.03489       -0.06925
N         33.42253       53.70295        3.23331
C         33.24808       52.85497        4.40132
C         34.46809       52.62692        5.26208
O         34.66094       51.50593        5.72574
C         32.07563       53.33132        5.23926
C         32.03567       54.79003        5.66939
O         31.21113       55.13353        6.66801
O         32.69134       55.66293        5.11833
H         32.90144       54.58597        3.17035
H         32.97365       51.84851        4.05122
H         32.02233       52.66162        6.11971
H         31.16382       53.12634        4.65537
N         35.36680       53.61472        5.47341
C         36.62603       53.35686        6.16062
C         36.41252       52.95825        7.59486
O         35.36730       53.28465        8.12629
C         37.55046       54.57492        6.05271
C         37.08950       55.91191        6.63804
C         36.54759       56.87757        5.77679
C         37.40167       56.29036        7.95655
C         36.46015       58.22433        6.17073
C         37.27375       57.62463        8.35122
C         36.85053       58.60108        7.45449
H         35.18637       54.53246        5.05095
H         37.08338       52.50436        5.62917
H         37.79031       54.74557        4.98072
H         38.56913       54.35069        6.41403
H         36.25555       56.58529        4.78386
H         37.81030       55.59566        8.67208
H         36.13638       58.98352        5.47039
H         37.57014       57.90786        9.34112
H         36.84043       59.64571        7.76370
N         37.34504       52.24790        8.32703
C         38.62845       51.75424        7.87455
C         38.57599       50.52114        6.99766
O         37.51661       50.14371        6.49243
C         39.35785       51.50096        9.21559
C         38.26481       51.10315       10.17005
C         37.13737       52.03230        9.73389
H         39.22246       52.51884        7.36617
H         40.21042       50.79608        9.26171
H         39.73188       52.50307        9.52309
H         38.01460       50.03752        9.96903
H         38.54487       51.21511       11.24278
H         36.13132       51.64100        9.96030
H         37.27312       53.00801       10.21933
N         39.75872       49.86261        6.75492
C         39.87788       48.60646        6.05860
C         41.24637       48.29801        5.38873
O         41.73791       47.19548        5.55066
C         39.50610       47.50598        7.05745
C         40.48937       47.41592        8.23447
C         39.87972       46.55538        9.27700
O         39.50798       47.10705       10.44358
O         39.65151       45.37731        9.05474
H         40.61280       50.24541        7.16286
H         39.15677       48.63678        5.23271
H         39.45490       46.51690        6.56958
H         38.50464       47.76952        7.44901
H         40.67111       48.42300        8.66908
H         41.46903       46.98847        7.93919
N         41.89359       49.14829        4.54337
C         41.71972       50.56786        4.45281
H         40.84971       50.93381        4.99652
H         42.63662       51.03958        4.88869
H         41.65994       50.86439        3.39323
H         42.66196       48.75072        3.98490
Ca        32.99072       44.80659        4.32233
O         35.02205       46.42256        5.38879
H         35.72245       47.06650        5.12577
H         34.69301       46.77417        6.25114
O         32.18670       46.22893        6.38722
H         31.49780       46.82012        6.76883
H         32.45797       45.64402        7.13667

Ca 1.70



