%chk=loop4.cluster145.chk
%nprocshared=48
%mem=10GB
%nosave
#b3lyp/svp scf=(tight,noincore) Test 
#IOP(5/87=12) Density=Current Pop=(MK,readradii) iop(6/33=2) iop(6/42=6)

loop4.cluster145 

   -3  1 
C         98.39103       80.92965       36.30449
C         99.70264       80.23655       36.53848
O         99.84237       79.08507       36.15444
H         97.58310       80.36791       36.81876
H         98.40500       81.96208       36.71481
H         98.16567       80.98705       35.21956
N        100.71933       80.89966       37.16657
C        102.00220       80.33193       37.57457
C        102.74751       79.50306       36.55198
O        103.61790       78.73815       36.93458
C        101.93029       79.71824       38.98891
C        101.19990       78.40810       39.11846
O        100.94969       77.91454       40.34455
O        100.86657       77.76712       38.13734
H        100.54944       81.87900       37.44267
H        102.67496       81.20582       37.72065
H        101.43096       80.47085       39.63484
H        102.95810       79.56620       39.38741
N        102.52423       79.68114       35.22069
C        103.33031       78.98144       34.23095
C        103.27730       77.47607       34.39152
O        102.37574       76.93899       35.01463
C        102.99121       79.39768       32.77739
C        103.42214       80.86112       32.53791
C        101.49344       79.19586       32.45771
C        103.38707       81.24637       31.06735
H        101.82235       80.36041       34.91308
H        104.39012       79.25528       34.43157
H        103.59499       78.74061       32.11105
H        104.47123       81.00182       32.88027
H        102.77691       81.54955       33.12436
H        100.86978       79.98295       32.93488
H        101.30834       79.23587       31.36566
H        101.14148       78.21407       32.82689
H        103.67644       82.31174       30.95785
H        104.11884       80.61803       30.51777
H        102.37526       81.11213       30.63649
N        104.29737       76.74465       33.87131
C        104.41584       75.30631       34.04050
C        104.63401       74.93331       35.51759
O        105.28462       75.68801       36.22607
C        105.56567       74.75970       33.16051
C        106.91904       75.34239       33.47820
O        107.24605       76.42771       33.02357
O        107.80739       74.62854       34.19307
H        105.02406       77.24731       33.34799
H        103.48870       74.84895       33.64724
H        105.33602       74.95758       32.09019
H        105.62446       73.65905       33.26690
N        104.19766       73.74646       36.04519
C        103.46235       72.76882       35.26828
C        102.04740       73.23603       35.00330
O        101.57753       74.09724       35.72932
H        104.43466       73.51376       37.02273
H        103.37840       71.81083       35.82312
H        104.05544       72.56851       34.36582
N        101.26324       72.70816       34.02049
C        101.74768       71.77971       33.00617
C        101.03910       72.07651       31.70788
O         99.82030       71.99403       31.68551
C        101.48426       70.33052       33.43259
C        102.19562       69.38473       32.50472
O        103.41899       68.92840       32.83464
O        101.73738       69.13976       31.40014
H        100.29788       73.06123       33.93593
H        102.83201       71.88938       32.86950
H        100.39604       70.09817       33.48398
H        101.90335       70.18916       34.44958
N        101.68629       72.43050       30.56772
C        103.13702       72.55580       30.41723
C        103.58748       73.04809       29.03925
O        104.77230       72.96032       28.75306
H        101.06740       72.56383       29.76974
H        103.57868       71.54632       30.57910
H        103.56868       73.25056       31.17114
N        102.69944       73.55579       28.12658
C        103.04740       73.94635       26.77964
C        102.44691       75.31323       26.54480
O        101.62581       75.49919       25.65790
C        102.51497       72.87672       25.81253
C        103.27328       71.54892       26.00460
C        102.83018       70.47159       25.05029
N        103.42755       69.25896       25.08409
O        101.93741       70.68456       24.24260
H        101.71615       73.68785       28.35502
H        104.14786       74.02555       26.63482
H        102.67163       73.22073       24.76851
H        101.42540       72.72111       25.98597
H        103.13180       71.17210       27.04078
H        104.35901       71.73035       25.84240
H        104.18338       69.06652       25.75828
H        103.13459       68.51612       24.43301
N        102.84533       76.33167       27.34177
C        102.40261       77.70554       27.17597
C        100.97240       77.88158       27.64850
O        100.63054       77.42870       28.73622
C        103.36063       78.65575       27.93986
C        102.97192       80.12532       27.71339
C        104.81140       78.44932       27.45317
H        103.54392       76.11784       28.06825
H        102.48903       77.99017       26.10130
H        103.31146       78.44071       29.03126
H        103.03981       80.38828       26.63652
H        101.94160       80.32863       28.07186
H        103.65972       80.78788       28.27352
H        104.86885       78.56816       26.34912
H        105.49432       79.17705       27.93374
H        105.19695       77.44046       27.70430
N        100.10235       78.62917       26.91201
C         98.73910       78.91664       27.34266
C         97.84031       77.68800       27.23414
O         96.73989       77.70627       27.75622
C         98.18926       80.06781       26.46971
C         96.86802       80.64613       26.90360
N         95.90323       80.90595       25.98972
O         96.69301       80.95279       28.07382
H        100.45493       79.06782       26.04461
H         98.78902       79.27257       28.39986
H         98.13917       79.73702       25.40704
H         98.92067       80.90037       26.52915
H         96.05918       80.70847       24.98977
H         95.02087       81.35477       26.27601
N         98.23629       76.61320       26.48837
C         97.40052       75.43481       26.26113
C         97.13943       74.67077       27.54046
O         98.05788       74.43363       28.31268
C         98.05145       74.53730       25.19562
C         97.94401       75.20322       23.83975
C         99.07033       75.75360       23.20998
C         96.69203       75.28238       23.20032
C         98.94584       76.37884       21.96451
C         96.57328       75.89252       21.94910
C         97.69684       76.44519       21.32838
O         97.56795       77.03738       20.12369
H         99.14272       76.65327       26.00795
H         96.41945       75.76334       25.85734
H         97.52917       73.55863       25.12905
H         99.10568       74.33781       25.48745
H        100.03732       75.71534       23.68748
H         95.81087       74.85999       23.66875
H         99.81939       76.81126       21.49411
H         95.60672       75.93667       21.46188
H         98.32451       77.43170       19.66682
N         95.85687       74.27707       27.81525
C         95.36156       73.72137       29.07634
C         95.18336       74.77991       30.14160
O         94.25721       74.65761       30.93407
C         96.10789       72.48691       29.62959
C         96.10786       71.29710       28.66055
C         94.73643       70.72174       28.40037
O         94.58539       69.91116       27.50154
O         93.68734       71.04065       29.18598
H         95.15312       74.41280       27.07388
H         94.31774       73.40808       28.85627
H         95.62740       72.16747       30.58172
H         97.15247       72.76661       29.87510
H         96.73155       70.47914       29.08253
H         96.56910       71.62542       27.70657
N         96.00344       75.86422       30.22312
C         95.80055       76.90982       31.20484
C         94.57576       77.75831       30.84930
O         94.20903       78.62200       31.63216
C         97.07255       77.78144       31.34060
C         98.39389       76.98991       31.48924
C         98.45872       76.18146       32.73916
O         99.35493       76.55435       33.67584
O         97.71548       75.22701       32.90810
H         96.78973       75.95605       29.58414
H         95.63038       76.42607       32.19084
H         96.95488       78.44836       32.22516
H         97.18621       78.41774       30.43984
H         99.20823       77.73704       31.54216
H         98.62239       76.34584       30.61593
N         93.88116       77.55085       29.68500
C         92.66131       78.26154       29.37452
H         91.90364       78.05739       30.16004
H         92.84892       79.35130       29.29428
H         92.25668       77.89411       28.40498
H         94.19897       76.85432       28.99908
Ca        99.73364       76.03593       35.82994
O         99.75275       74.74226       38.37046
H        100.04643       75.03781       39.26789
H         98.94808       74.18986       38.53508
O         97.33833       76.87723       36.77972
H         97.00634       77.26718       37.62532
H         96.65493       76.21335       36.51156
O         98.18858       73.66338       35.70679
H         98.36700       74.15741       34.87302
H         97.25656       73.35469       35.60138

Ca 1.70



