%chk=loop3.cluster152.chk
%nprocshared=48
%mem=10GB
%nosave
#b3lyp/svp scf=(tight,noincore) Test 
#IOP(5/87=12) Density=Current Pop=(MK,readradii) iop(6/33=2) iop(6/42=6)

loop3.cluster152 

   0  1 
C         54.00790       55.33890       43.15640
C         53.80435       55.71944       44.58775
O         52.80887       55.32667       45.17123
H         54.98476       54.81481       43.07838
H         53.21268       54.64051       42.82160
H         54.02095       56.23721       42.50650
N         54.78143       56.41680       45.23380
C         54.82689       56.69762       46.66426
C         53.84489       57.76593       47.13177
O         54.28741       58.84394       47.50199
C         54.75920       55.40921       47.52484
C         55.80319       54.40850       47.11313
O         55.66430       53.76125       46.08688
O         56.89150       54.21480       47.88054
H         55.61822       56.67727       44.68965
H         55.83645       57.12968       46.85644
H         53.77167       54.90566       47.48066
H         54.93759       55.69549       48.58350
N         52.51603       57.48934       47.26065
C         51.55691       58.38326       47.91428
C         52.11526       58.92386       49.24253
O         51.90623       60.09027       49.55226
C         50.18575       57.65581       48.05635
C         50.11731       56.52647       49.11177
C         51.02315       55.29396       48.86456
C         50.90960       54.24267       49.96780
N         51.50261       54.71564       51.21268
H         52.18121       56.57671       46.95804
H         51.40446       59.25459       47.24015
H         49.88259       57.24921       47.06418
H         49.41824       58.40713       48.34291
H         49.06936       56.15436       49.13802
H         50.32455       56.99357       50.08878
H         52.08786       55.54819       48.81927
H         50.73245       54.82765       47.90089
H         51.45744       53.32429       49.66195
H         49.84302       53.99177       50.10737
H         51.37777       54.01729       51.96047
H         52.52450       54.83587       51.08233
H         51.05019       55.58738       51.53271
N         52.96495       58.15147       49.98244
C         53.82994       58.58481       51.09365
C         54.55193       57.35790       51.70746
O         54.29352       56.23491       51.29465
C         53.09771       59.42317       52.17819
C         51.89279       58.74803       52.71294
O         51.26773       59.20112       53.80272
O         51.52197       57.69816       52.23235
H         53.08021       57.18819       49.65875
H         54.61547       59.24857       50.67544
H         52.79862       60.41825       51.79716
H         53.79973       59.59670       53.02011
N         55.52420       57.48529       52.64905
C         56.27772       56.32742       53.12520
C         55.55222       55.46841       54.15438
O         54.46887       55.81204       54.59705
H         55.81927       58.43006       52.94191
H         57.21195       56.67920       53.60952
H         56.58179       55.70404       52.25234
N         56.14700       54.32940       54.60604
C         55.60390       53.46137       55.66211
C         56.72387       52.68477       56.38511
O         56.41064       51.77339       57.13778
C         54.61310       52.44626       55.04707
C         53.31516       53.04584       54.60212
N         52.38208       53.40836       55.51282
O         53.07817       53.15035       53.41125
H         57.01560       54.04336       54.13018
H         55.08007       54.05052       56.44853
H         54.33706       51.64389       55.76540
H         55.11446       51.97373       54.19154
H         52.54975       53.27586       56.52079
H         51.47390       53.77688       55.20759
N         58.04720       53.01467       56.24237
C         59.12875       52.25201       56.84849
C         59.27031       50.89477       56.19872
O         59.38446       50.82458       54.98286
H         58.31922       53.85107       55.71445
H         58.97651       52.17701       57.94734
H         60.08078       52.79419       56.67159
N         59.25615       49.76243       56.96297
C         59.31123       48.39619       56.43567
C         58.07765       48.00135       55.62775
O         58.00988       46.84690       55.23905
C         60.60240       48.09459       55.63487
C         61.85149       48.27180       56.45992
C         62.36474       47.19840       57.21044
C         62.51959       49.50499       56.47624
C         63.52284       47.36433       57.97651
C         63.67648       49.66876       57.24378
C         64.17860       48.59952       58.00082
O         65.28628       48.75143       58.75479
H         59.19418       49.86767       57.98664
H         59.31488       47.71167       57.31456
H         60.66724       48.68308       54.69594
H         60.57036       47.03101       55.30551
H         61.86666       46.23626       57.20373
H         62.14352       50.33707       55.89552
H         63.90909       46.53382       58.55492
H         64.18146       50.62600       57.25103
H         65.74894       49.59963       58.81336
N         57.06749       48.88822       55.34759
C         55.81458       48.56766       54.67290
C         54.87956       47.87588       55.65538
O         53.92182       48.50483       56.07531
C         56.01286       47.90801       53.26717
C         56.91265       48.77611       52.33970
C         54.67114       47.60989       52.57801
C         56.29953       50.10869       51.89619
H         57.15236       49.85852       55.65107
H         55.30900       49.53802       54.48097
H         56.52729       46.93305       53.38516
H         57.14131       48.20024       51.41743
H         57.87887       48.98114       52.84830
H         54.84066       47.19842       51.55956
H         54.10566       46.85663       53.14449
H         54.03978       48.51892       52.50648
H         57.01852       50.66101       51.25766
H         55.37301       49.95026       51.30568
H         56.07713       50.74396       52.76233
N         55.11507       46.61750       56.11652
C         54.23903       45.94082       57.07319
C         52.85051       45.71258       56.48186
O         51.86664       45.83319       57.19874
C         54.88209       44.61626       57.50305
O         55.09754       43.80007       56.38139
H         55.93604       46.11171       55.77555
H         54.14759       46.56178       57.99541
H         54.23365       44.11591       58.25946
H         55.86303       44.83190       57.98519
H         54.87830       42.87148       56.64559
N         52.71138       45.47740       55.14030
C         51.44127       45.36536       54.41283
C         50.56621       46.63668       54.41849
O         49.50426       46.62320       53.81210
C         50.66093       44.13569       54.88785
H         53.57016       45.37076       54.58709
H         51.70005       45.17498       53.34779
H         51.31838       43.23973       54.84710
H         50.28276       44.26062       55.92235
H         49.79905       43.95449       54.21049
N         50.94570       47.76071       55.08957
C         50.13683       48.96807       55.22173
C         50.02677       49.78010       53.94923
O         51.03766       50.06162       53.31798
C         50.76063       49.88153       56.28421
H         51.82516       47.74546       55.59407
H         49.12877       48.69885       55.60459
H         51.78970       50.18741       55.99579
H         50.14152       50.79461       56.41654
H         50.80247       49.34374       57.25481
N         48.81242       50.29969       53.59478
C         48.61289       51.28094       52.53209
C         48.90162       50.76915       51.12787
O         48.73258       51.53610       50.18923
C         49.31894       52.61484       52.88646
C         48.66025       53.22536       54.13586
C         49.02883       54.62988       54.49270
O         48.39241       55.19584       55.36044
O         49.99199       55.30530       53.86357
H         47.99196       50.06603       54.17194
H         47.52921       51.52786       52.49380
H         49.13937       53.32939       52.06200
H         50.40786       52.46633       53.03122
H         48.84570       52.58645       55.02273
H         47.57198       53.27319       53.93401
N         49.25382       49.47162       50.89027
C         49.41587       48.93787       49.55280
H         50.45883       48.58771       49.41980
H         48.72599       48.07652       49.42470
H         49.18271       49.67951       48.75975
H         49.37845       48.81595       51.67075
Ca        50.27656       57.39941       54.61326
O         51.25437       55.89450       56.95514
H         50.79098       55.50557       57.73842
H         52.18562       56.03883       57.25783
O         52.99626       58.35988       55.65204
H         53.25943       57.77586       54.90240
H         53.84320       58.73425       55.99399
O         48.61408       57.66370       57.11676
H         47.83680       58.25046       56.94513
H         48.22672       56.75677       57.17020
O         48.03009       58.73169       54.18293
H         47.18971       58.55327       54.67155
H         47.80626       59.41851       53.50934
O         50.67356       59.64869       56.73263
H         51.51108       60.15893       56.60238
H         50.19829       60.13555       57.45019

Ca 1.70



