%chk=loop3.cluster121.chk
%nprocshared=48
%mem=10GB
%nosave
#b3lyp/svp scf=(tight,noincore) Test 
#IOP(5/87=12) Density=Current Pop=(MK,readradii) iop(6/33=2) iop(6/42=6)

loop3.cluster121 

   0  1 
C        106.37422       58.59442       20.90730
C        107.52335       57.63795       20.85452
O        107.30045       56.44555       20.72763
H        105.57818       58.22018       21.58292
H        106.70716       59.59554       21.25335
H        105.97049       58.69763       19.87837
N        108.79743       58.11218       20.83571
C        109.94995       57.24671       20.62760
C        110.18892       56.27504       21.76437
O        109.89723       55.10663       21.59145
C        111.25306       58.01657       20.27241
C        111.54268       59.23969       21.11248
O        112.55693       59.23496       21.99623
O        110.92081       60.27377       20.92338
H        108.92186       59.12814       20.86251
H        109.73568       56.61650       19.73261
H        111.21108       58.35635       19.21678
H        112.10517       57.30181       20.33943
N        110.81442       56.64547       22.91475
C        111.30787       55.63733       23.84456
C        112.40568       54.81302       23.15563
O        113.49506       55.32572       22.93880
C        111.79818       56.31056       25.14082
C        112.24858       55.29429       26.19606
C        112.48147       55.98266       27.54836
C        112.95779       55.00093       28.63004
N        114.37209       54.65725       28.47126
H        110.99859       57.63821       23.10082
H        110.45753       54.98438       24.12445
H        110.94358       56.89687       25.54682
H        112.62926       57.01920       24.92471
H        113.16426       54.78104       25.83800
H        111.44445       54.53866       26.33820
H        111.50432       56.40452       27.87153
H        113.20495       56.82348       27.46381
H        112.32712       54.08291       28.62219
H        112.83287       55.48849       29.62080
H        114.65944       54.03333       29.25944
H        114.54656       54.16440       27.56771
H        114.95080       55.52831       28.51664
N        112.14577       53.53841       22.73193
C        113.12375       52.66992       22.06538
C        112.77508       52.35172       20.60442
O        113.50199       51.58980       19.98366
C        113.29313       51.37697       22.90245
C        112.02706       50.59121       23.13103
O        111.49975       50.51613       24.36916
O        111.50088       49.98294       22.21335
H        111.20187       53.16733       22.88671
H        114.12111       53.16025       22.03014
H        113.68256       51.68456       23.89392
H        114.04348       50.70075       22.43800
N        111.70483       52.91895       19.97904
C        111.35765       52.60325       18.59627
C        110.10696       53.33718       18.11171
O        109.51855       54.08302       18.87569
H        111.13730       53.58349       20.49414
H        111.15452       51.51400       18.53250
H        112.21859       52.85367       17.94938
N        109.60065       53.16802       16.85279
C        110.27452       52.43379       15.78844
C        109.26580       51.99005       14.73017
O        108.56272       52.84276       14.20504
C        111.33837       53.35272       15.14951
C        112.12245       52.68482       14.04461
N        112.28678       53.30069       12.85095
O        112.64792       51.59971       14.24137
H        108.73023       53.67267       16.61872
H        110.81281       51.57018       16.21079
H        112.06574       53.65041       15.92493
H        110.85929       54.28312       14.77258
H        111.89522       54.23908       12.68473
H        112.84339       52.85352       12.10747
N        109.15498       50.69485       14.30197
C        109.92069       49.57260       14.82596
C        109.35235       49.13376       16.15285
O        109.36119       49.90320       17.09610
H        108.50450       50.49904       13.52418
H        111.00243       49.80169       14.87467
H        109.82058       48.73122       14.10711
N        108.77085       47.90865       16.27068
C        108.00688       47.51709       17.44853
C        108.47937       46.21054       18.01983
O        108.58797       45.22804       17.30021
C        106.54320       47.31785       17.04857
C        105.86541       48.60144       16.68181
C        105.55573       49.54935       17.67303
C        105.50811       48.84528       15.35197
C        104.89077       50.72910       17.32944
C        104.85615       50.02832       15.00838
C        104.54246       50.97387       15.99625
O        103.90528       52.11563       15.67158
H        108.78437       47.26696       15.46327
H        108.04054       48.29184       18.24466
H        105.96231       46.88389       17.88564
H        106.51747       46.59671       16.20372
H        105.81267       49.36483       18.71037
H        105.74192       48.11986       14.58311
H        104.64258       51.45050       18.09850
H        104.59082       50.20624       13.97535
H        103.65793       52.31281       14.75685
N        108.66310       46.11365       19.36328
C        108.92089       44.83915       20.01863
C        107.69888       43.90399       19.88223
O        107.83434       42.70308       20.07887
C        109.36796       45.12533       21.48471
C        108.18550       45.56755       22.38030
C        110.15099       43.94710       22.07008
C        108.61231       46.24383       23.67973
H        108.57582       46.96521       19.93533
H        109.78491       44.39257       19.47897
H        110.08801       45.97339       21.43020
H        107.58006       44.68345       22.63547
H        107.55532       46.30690       21.83975
H        111.06201       43.78359       21.45383
H        110.48981       44.17023       23.10095
H        109.54571       43.01938       22.07319
H        109.24424       47.12858       23.45615
H        107.71258       46.59756       24.22584
H        109.15838       45.54110       24.33749
N        106.46251       44.41118       19.56560
C        105.26530       43.61244       19.30849
C        104.30279       43.65551       20.49088
O        103.16123       43.24616       20.35922
C        104.57648       44.16616       18.04799
O        105.47472       44.15839       16.97355
H        106.34595       45.43340       19.53880
H        105.51461       42.54301       19.12848
H        104.23991       45.20948       18.25554
H        103.69090       43.54570       17.78711
H        105.05334       44.70570       16.26076
N        104.75455       44.06564       21.70880
C        103.97153       43.96094       22.92783
C        104.41290       45.01943       23.93885
O        105.35991       45.74531       23.69612
C        104.21260       42.56331       23.51146
H        105.74425       44.25891       21.80684
H        102.89156       44.09695       22.70347
H        103.63695       42.40455       24.44556
H        103.90959       41.78691       22.77614
H        105.29594       42.42511       23.72777
N        103.73669       45.14462       25.11450
C        104.13778       46.03371       26.20531
C        104.28238       47.49719       25.80399
O        105.16918       48.17584       26.31118
C        105.39079       45.49036       26.90865
H        102.89824       44.56634       25.25944
H        103.31772       45.99349       26.95449
H        106.27833       45.53130       26.24220
H        105.60244       46.08055       27.82640
H        105.22173       44.43538       27.21284
N        103.43118       48.05780       24.90223
C        103.44954       49.47819       24.56798
C        102.03119       49.99617       24.46842
O        101.66982       50.89475       25.21530
C        104.19990       49.74051       23.25153
C        105.71708       49.62017       23.43456
C        106.40730       50.00051       22.16978
O        107.05740       49.17260       21.55392
O        106.31007       51.26292       21.71059
H        102.74580       47.44916       24.42898
H        103.96175       50.07132       25.36111
H        103.98727       50.78321       22.92492
H        103.84892       49.04638       22.45462
H        105.98640       48.58310       23.71963
H        106.07075       50.31421       24.23098
N        101.17744       49.49822       23.53041
C         99.83702       50.01706       23.37183
H         99.23674       49.82234       24.28548
H         99.87864       51.11029       23.17826
H         99.34553       49.52650       22.50524
H        101.49421       48.75147       22.89469
Ca       107.57651       53.72867       20.81690
O        107.96396       51.46793       19.26766
H        107.85455       50.64375       19.79598
H        107.75842       51.19326       18.34374
O        105.04794       54.53033       21.39429
H        104.72669       55.23067       22.01390
H        104.24798       54.23100       20.89576
O        107.64956       54.20237       23.52094
H        108.49329       53.94858       23.96827
H        107.33516       55.00469       24.00475
O        106.27608       53.99347       18.49136
H        106.48548       53.91090       17.52974
H        105.50641       54.61252       18.54139
O        109.15233       52.01160       22.05966
H        109.87863       51.58878       21.54283
H        109.34360       51.82511       23.01107

Ca 1.70



