%chk=loop2.cluster166.chk
%nprocshared=48
%mem=10GB
%nosave
#b3lyp/svp scf=(tight,noincore) Test 
#IOP(5/87=12) Density=Current Pop=(MK,readradii) iop(6/33=2) iop(6/42=6)

loop2.cluster166 

   -2  1 
C         54.39401       34.45710       24.03106
C         54.06368       34.24009       22.57986
O         53.07366       33.58677       22.28070
H         55.27288       35.12795       24.14590
H         53.53187       34.95465       24.52666
H         54.60692       33.49696       24.54056
N         54.82855       34.82785       21.61706
C         54.42007       34.89428       20.21644
C         54.77083       33.63965       19.41131
O         54.33292       33.53215       18.27523
C         55.07181       36.15151       19.60585
C         54.46768       36.58864       18.30699
O         55.16181       36.68496       17.30869
O         53.17060       36.94962       18.25851
H         55.62821       35.40241       21.92439
H         53.31498       35.04497       20.20433
H         56.16583       35.97457       19.50424
H         54.92520       37.00014       20.30946
N         55.56620       32.65660       19.93711
C         55.88253       31.39618       19.26027
C         54.62846       30.55680       19.06546
O         54.52141       29.83538       18.08130
C         56.67374       31.62195       17.95819
H         55.95351       32.78251       20.88163
H         56.54417       30.82014       19.94329
H         56.05151       32.10367       17.17533
H         57.55485       32.26736       18.15843
H         57.04018       30.65266       17.55560
N         53.59928       30.67125       19.95916
C         52.30102       30.02246       19.82289
C         51.75029       30.22244       18.42575
O         51.38276       29.25264       17.77619
C         52.37426       28.53181       20.19590
C         52.91381       28.28393       21.57646
O         53.06253       29.29362       22.45798
O         53.21673       27.14871       21.90416
H         53.70717       31.32071       20.75086
H         51.60985       30.51413       20.54176
H         53.02239       28.00960       19.46407
H         51.35727       28.08970       20.13244
N         51.74086       31.46593       17.87172
C         51.32357       31.70195       16.50594
C         49.83316       31.92446       16.40351
O         49.42833       32.97939       15.93630
H         52.16605       32.24553       18.39151
H         51.64766       30.86460       15.84481
H         51.84783       32.60653       16.12536
N         48.95496       30.93583       16.74035
C         47.54000       30.98718       16.39763
C         46.64831       30.53538       17.54209
O         47.02093       29.63262       18.28257
C         47.36673       30.08997       15.18004
C         45.93295       30.00071       14.75164
N         45.32996       28.79577       14.66259
O         45.30858       31.01860       14.49088
H         49.31981       30.04318       17.08973
H         47.23563       32.01532       16.09955
H         47.76814       29.07814       15.40926
H         47.97081       30.52183       14.35271
H         45.85463       27.93264       14.86913
H         44.34369       28.72811       14.37871
N         45.45841       31.17844       17.76897
C         44.72214       31.05195       19.01836
C         45.26093       32.11868       19.93894
O         44.51214       32.96478       20.40813
H         45.18052       31.93833       17.13066
H         44.83151       30.03704       19.45559
H         43.63821       31.23187       18.83449
N         46.60723       32.19923       20.12276
C         47.27121       33.33948       20.70768
C         47.13784       33.32842       22.19743
O         46.96408       32.27696       22.78805
C         48.74569       33.37631       20.19396
C         49.58973       34.55682       20.69375
O         49.40953       32.14901       20.40636
H         47.20299       31.49206       19.69524
H         46.78324       34.26251       20.31859
H         48.66510       33.50772       19.09189
H         49.89479       32.17966       21.27004
H         49.85490       34.43305       21.76486
H         50.53129       34.59706       20.10360
H         49.04572       35.51262       20.55786
N         47.21678       34.50354       22.86742
C         47.18777       34.62191       24.31864
C         48.25043       33.72171       24.93964
O         49.34189       33.60569       24.39813
C         47.29014       36.12164       24.71599
C         47.09942       36.29632       26.23907
C         48.59207       36.78526       24.21174
C         47.01285       37.75916       26.67438
H         47.30587       35.35634       22.30071
H         46.19414       34.26074       24.67039
H         46.43581       36.62993       24.21176
H         47.92773       35.80115       26.78939
H         46.14379       35.81127       26.53192
H         48.55362       37.88007       24.37383
H         49.47872       36.36184       24.72258
H         48.73776       36.66709       23.12044
H         47.96374       38.29444       26.47945
H         46.18332       38.27230       26.14207
H         46.81842       37.80462       27.76564
N         47.93240       32.96724       26.02870
C         48.73159       31.85071       26.50666
C         47.79271       30.63885       26.53507
O         47.60913       29.99758       27.56287
C         49.35108       32.23486       27.86155
C         50.40337       31.27806       28.33404
O         51.43078       31.13916       27.69038
O         50.25349       30.62445       29.50086
H         47.04613       33.14861       26.50796
H         49.56140       31.64549       25.79121
H         48.54757       32.34246       28.61712
H         49.85901       33.21738       27.74820
N         47.12031       30.31958       25.39461
C         46.17050       29.23077       25.22408
C         44.82442       29.31179       25.99083
O         44.30716       28.24944       26.27271
C         45.79057       29.11580       23.71694
C         45.13590       27.79462       23.37045
C         45.92813       26.64122       23.22654
C         43.74623       27.70184       23.17495
C         45.34075       25.41736       22.89046
C         43.16114       26.46930       22.85763
C         43.95812       25.32990       22.71210
H         47.34886       30.87698       24.56489
H         46.69620       28.28731       25.49677
H         46.68714       29.20666       23.06460
H         45.12755       29.97041       23.44980
H         47.00155       26.69702       23.35811
H         43.11759       28.57616       23.28435
H         45.95801       24.53613       22.76803
H         42.08950       26.39633       22.72272
H         43.50483       24.37923       22.45949
N         44.07221       30.47144       26.12403
C         44.50450       31.83512       25.97054
C         44.65882       32.48407       27.37007
O         44.85664       33.68086       27.45372
C         43.28377       32.45453       25.28202
C         42.13031       31.82510       26.07267
C         42.62356       30.38507       26.30387
H         45.40621       31.98410       25.35508
H         43.26254       33.56705       25.24879
H         43.25093       32.07088       24.23823
H         42.06591       32.34945       27.05075
H         41.13636       31.89721       25.57813
H         42.31091       29.97355       27.28731
H         42.21840       29.75796       25.48429
N         44.46228       31.73409       28.50747
C         44.36171       32.33231       29.83325
C         45.71095       32.82126       30.30428
O         46.61283       32.01921       30.50126
C         43.70810       31.30543       30.78956
C         43.46813       31.85103       32.19919
C         42.57296       30.92450       32.97555
O         42.95228       29.65568       33.22037
O         41.48728       31.31761       33.37316
H         44.27023       30.73215       28.43107
H         43.64878       33.18387       29.77044
H         44.30532       30.36751       30.84403
H         42.71779       31.05361       30.34387
H         42.97278       32.84246       32.12528
H         44.43704       31.97262       32.72903
N         45.92380       34.15640       30.47464
C         47.21298       34.68403       30.86019
H         47.98195       34.36955       30.12327
H         47.17293       35.79450       30.86943
H         47.49208       34.32500       31.87289
H         45.15725       34.82066       30.29071
Ca        52.10983       27.29607       24.51331
O         49.92894       25.70023       25.25718
H         49.54402       25.72711       26.16650
H         50.05593       24.73811       25.07145
O         50.44027       27.98031       26.84240
H         50.66345       28.89725       27.11742
H         49.56174       27.81409       27.26327
O         53.06781       25.95069       27.16191
H         52.34756       25.66296       27.77709
H         53.67559       26.49369       27.72406
O         53.42447       29.37872       25.87905
H         53.90298       30.21052       25.64349
H         52.48254       29.66013       25.97501
O         54.90120       27.05605       24.79306
H         55.66685       27.39255       24.26494
H         55.18698       26.16886       25.12548
O         52.64214       24.53295       24.19382
H         52.56659       23.86263       23.47035
H         52.98036       24.02937       24.97581
O         50.25292       26.69733       22.39243
H         49.52426       26.11445       22.71710
H         49.98983       26.91908       21.46698
O         50.12537       29.32858       23.95336
H         49.31113       28.85285       23.65253
H         50.15315       30.15161       23.40496

Ca 1.70



