%chk=loop3.cluster3.chk
%nprocshared=48
%mem=10GB
%nosave
#b3lyp/svp scf=(tight,noincore) Test 
#IOP(5/87=12) Density=Current Pop=(MK,readradii) iop(6/33=2) iop(6/42=6)

loop3.cluster3 

   0  1 
C         27.35929       43.98986       28.92736
C         28.27081       43.85968       30.09596
O         27.85628       44.14432       31.21193
H         26.37617       44.39179       29.25283
H         27.81918       44.69228       28.20367
H         27.21174       42.99764       28.45366
N         29.54848       43.42040       29.92104
C         30.45213       43.31405       31.04380
C         30.90472       44.70381       31.44812
O         31.55883       45.39417       30.67809
C         31.57511       42.31051       30.77124
C         32.28727       41.98562       32.03902
O         32.04697       42.71638       33.14122
O         33.01736       41.02618       32.08025
H         29.87089       43.14599       28.98100
H         29.87700       42.84991       31.87935
H         32.27516       42.63769       29.97724
H         31.08543       41.36307       30.45017
N         30.47963       45.19708       32.63668
C         30.61192       46.58470       33.05671
C         32.06619       46.99763       33.32448
O         32.36506       48.18195       33.31432
C         29.71466       46.73579       34.29792
C         29.36583       48.15647       34.70184
C         28.57469       48.09576       36.01843
C         28.38562       49.47087       36.65762
N         27.51925       50.34720       35.87261
H         29.91563       44.56858       33.21861
H         30.20046       47.20518       32.23017
H         30.20834       46.19257       35.13562
H         28.73675       46.23918       34.09432
H         28.76059       48.63102       33.89524
H         30.29703       48.73404       34.85343
H         29.16567       47.49711       36.74609
H         27.59587       47.58175       35.87335
H         29.38478       49.94151       36.78987
H         27.93589       49.32443       37.66378
H         27.45130       51.26627       36.36596
H         27.91525       50.51236       34.92055
H         26.56283       49.93075       35.79848
N         33.00823       46.05033       33.60063
C         34.44859       46.31906       33.72250
C         35.29913       45.35773       32.87006
O         36.49448       45.59571       32.74389
C         34.89688       46.32707       35.20468
C         34.45685       45.16977       36.05479
O         33.80594       44.25027       35.58997
O         34.74919       45.17896       37.36862
H         32.67670       45.09421       33.73880
H         34.67082       47.34068       33.33914
H         34.47385       47.23504       35.68230
H         36.00625       46.40269       35.26164
N         34.75204       44.28997       32.21286
C         35.49969       43.42881       31.31059
C         36.35130       42.36504       31.98458
O         37.16586       41.75737       31.30629
H         33.75162       44.12201       32.27397
H         36.08453       44.05782       30.60754
H         34.77531       42.86155       30.68731
N         36.16671       42.02829       33.29380
C         36.92308       40.95770       33.96009
C         36.66779       39.58717       33.32776
O         37.59039       38.79914       33.17635
C         36.61384       40.95453       35.47676
C         35.22316       40.50435       35.86758
N         35.05176       39.57428       36.83638
O         34.24631       41.00895       35.34072
H         35.45662       42.54091       33.83429
H         38.00457       41.20070       33.87661
H         36.75426       41.99515       35.84024
H         37.35930       40.31764       35.99844
H         35.86165       39.16281       37.32204
H         34.10314       39.29048       37.12392
N         35.41872       39.28295       32.89283
C         35.06755       38.09111       32.13729
C         33.61321       37.66507       32.31696
O         33.22961       36.68472       31.69031
H         34.73993       40.02584       32.96037
H         35.72435       37.23960       32.42336
H         35.22447       38.30120       31.05810
N         32.76097       38.28660       33.20000
C         31.44819       37.73875       33.53426
C         30.40154       38.82338       33.68439
O         30.73910       39.94306       34.04229
C         31.56480       36.98241       34.86918
C         32.73167       36.03054       34.80882
C         34.01007       36.48466       35.17698
C         32.58013       34.73560       34.29740
C         35.12154       35.65804       35.03920
C         33.69563       33.90088       34.17050
C         34.97048       34.36281       34.53954
O         36.05406       33.57294       34.40891
H         33.10477       39.05407       33.78941
H         31.11894       37.01126       32.75758
H         30.61773       36.44969       35.10261
H         31.74847       37.71162       35.68908
H         34.14427       37.49342       35.53680
H         31.60507       34.38206       33.98651
H         36.10182       36.03129       35.30880
H         33.57233       32.90246       33.77313
H         35.98540       32.66991       34.06969
N         29.08845       38.54251       33.47782
C         28.01964       39.53030       33.60050
C         27.01633       39.06200       34.63908
O         26.63757       37.89437       34.61676
C         27.32329       39.68796       32.22385
C         28.33430       40.14536       31.14711
C         26.17844       40.72028       32.30824
C         27.84231       39.85570       29.73330
H         28.83383       37.58489       33.18156
H         28.41373       40.53201       33.89413
H         26.91800       38.69083       31.94246
H         29.30256       39.61350       31.23827
H         28.53179       41.22372       31.27783
H         25.67529       40.87692       31.33693
H         25.40244       40.41141       33.03700
H         26.59880       41.69656       32.61872
H         27.77648       38.75412       29.59649
H         26.85110       40.30409       29.53102
H         28.57221       40.25908       29.00184
N         26.47489       39.94065       35.53196
C         25.45531       39.56782       36.50366
C         24.13182       40.27128       36.23710
O         24.02957       41.03845       35.29257
C         25.95324       39.90035       37.91697
O         25.87678       41.28571       38.14632
H         26.78164       40.91994       35.50472
H         25.26759       38.47405       36.45243
H         26.99109       39.51307       38.04162
H         25.31912       39.38668       38.66821
H         26.75594       41.59590       38.47510
N         23.06461       40.05057       37.04909
C         21.75806       40.68111       36.86514
C         21.76431       42.20717       37.00456
O         20.82893       42.83953       36.53454
C         20.77713       40.06393       37.86774
H         23.18124       39.36970       37.81616
H         21.40021       40.45056       35.83623
H         21.18365       40.15919       38.89986
H         19.77735       40.53970       37.82787
H         20.66816       38.98045       37.64167
N         22.77217       42.86430       37.64301
C         22.85026       44.32424       37.71130
C         23.56124       44.87331       36.48695
O         23.20150       45.93586       36.00130
C         23.59536       44.73899       38.98506
H         23.52614       42.31545       38.07725
H         21.83888       44.78287       37.79067
H         23.67157       45.84617       39.05204
H         23.03339       44.37742       39.87343
H         24.61844       44.30691       39.00998
N         24.60683       44.18836       35.95193
C         25.36091       44.63896       34.78476
C         24.44239       44.64602       33.56893
O         24.22373       45.70297       32.99195
C         26.60565       43.73653       34.61960
C         27.50489       43.84217       35.88127
C         28.70366       42.94285       35.88756
O         29.73419       43.20653       35.08603
O         28.78266       42.01900       36.67976
H         24.87028       43.29855       36.39423
H         25.73975       45.67060       34.95820
H         27.18026       44.01373       33.71250
H         26.24444       42.70358       34.50436
H         26.92592       43.58375       36.78491
H         27.85209       44.88876       36.00602
N         23.80969       43.50845       33.16949
C         22.78589       43.50415       32.14730
H         21.94176       44.15229       32.47013
H         23.18754       43.86112       31.17771
H         22.38874       42.47285       32.01948
H         24.02166       42.62512       33.63766
Ca        31.71774       42.17299       35.25886
O         31.34547       44.32806       37.45380
H         30.42401       44.53633       37.74823
H         31.86401       45.14524       37.66014
O         31.22935       40.07746       37.15689
H         30.41337       39.52630       37.05591
H         31.61495       39.80472       38.02630
O         33.42425       42.22716       37.93310
H         33.73649       42.07401       38.85757
H         34.11955       42.81179       37.54958

Ca 1.70



