%chk=loop2.cluster123.chk
%nprocshared=48
%mem=10GB
%nosave
#b3lyp/svp scf=(tight,noincore) Test 
#IOP(5/87=12) Density=Current Pop=(MK,readradii) iop(6/33=2) iop(6/42=6)

loop2.cluster123 

   -2  1 
C         19.93249        4.79699       64.92464
C         20.61308        4.92550       66.26326
O         20.98509        6.02404       66.64810
H         19.01130        5.41462       64.89012
H         20.62788        5.12779       64.12550
H         19.64843        3.74270       64.71133
N         20.83264        3.81508       67.01787
C         21.53774        3.82239       68.30468
C         20.78386        4.57069       69.40754
O         21.37124        4.88543       70.43330
C         21.68935        2.34117       68.73744
C         22.32460        2.12947       70.07939
O         23.46685        2.50145       70.28838
O         21.63070        1.51159       71.05588
H         20.50739        2.91078       66.63876
H         22.54068        4.28093       68.15947
H         22.28086        1.79792       67.96889
H         20.67325        1.88445       68.76992
N         19.43570        4.68323       69.33071
C         18.57873        5.03302       70.46673
C         17.14675        4.57224       70.17511
O         16.83304        4.28872       69.02822
C         18.65048        6.53742       70.81431
H         18.99698        4.34429       68.46886
H         18.90799        4.42334       71.33644
H         18.94043        7.14456       69.93043
H         17.67088        6.92269       71.16990
H         19.38837        6.72184       71.62489
N         16.20584        4.40392       71.14516
C         16.37296        4.62858       72.57017
C         16.03418        3.33379       73.30045
O         15.03267        2.71207       72.97991
C         15.41060        5.75412       72.97486
C         15.57358        6.20999       74.39911
O         16.51202        5.67849       75.20478
O         14.86784        7.10604       74.82112
H         15.28210        4.07048       70.84194
H         17.39667        4.96554       72.82983
H         14.36378        5.42816       72.79544
H         15.60834        6.63645       72.33088
N         16.81565        2.88360       74.31682
C         16.53613        1.65731       75.04699
C         17.18557        0.47423       74.36121
O         18.36037        0.58216       74.04061
H         17.61546        3.45606       74.62340
H         15.46110        1.56194       75.30172
H         17.06247        1.73678       76.02215
N         16.56346       -0.72678       74.16333
C         15.19160       -1.03026       74.55149
C         14.21451       -0.40141       73.58632
O         14.26677       -0.70239       72.40052
C         14.98580       -2.56072       74.58578
C         13.56999       -2.91578       74.96779
N         13.25698       -3.21019       76.24933
O         12.69265       -2.90331       74.11667
H         17.13535       -1.49267       73.77187
H         15.01513       -0.68199       75.59365
H         15.68827       -2.97503       75.34255
H         15.23714       -3.04382       73.61471
H         13.97931       -3.18933       76.98339
H         12.28335       -3.42613       76.50884
N         13.26486        0.46382       74.03485
C         12.29461        1.04158       73.12828
C         11.45266        2.09395       73.80233
O         10.23433        2.01676       73.73609
H         13.24180        0.71927       75.03364
H         11.65310        0.23872       72.69985
H         12.83033        1.53408       72.28793
N         12.05259        3.16998       74.38915
C         11.31570        4.35610       74.80229
C         11.52080        5.37598       73.71448
O         12.14026        6.40965       73.90986
C         11.66784        4.83849       76.22879
C         11.04353        3.93928       77.29004
O         13.05130        4.89163       76.44605
H         13.08186        3.21664       74.40044
H         10.21679        4.19054       74.79867
H         11.20203        5.84230       76.37698
H         13.37477        5.70632       75.99931
H          9.95582        3.81485       77.09615
H         11.53262        2.94435       77.29828
H         11.15766        4.41697       78.28682
N         10.93826        5.12439       72.51556
C         11.00030        6.00289       71.36804
C          9.74689        6.85512       71.33743
O          8.64036        6.33622       71.37662
C         11.25596        5.19353       70.06980
C         12.71496        4.68430       70.08572
C         10.26218        4.02355       69.86589
C         13.15206        4.03000       68.77948
H         10.33176        4.29827       72.45422
H         11.85250        6.71000       71.47432
H         11.14740        5.90865       69.23102
H         12.86103        3.97597       70.92936
H         13.39456        5.54355       70.25321
H          9.21047        4.35926       69.95302
H         10.37985        3.57218       68.86207
H         10.44028        3.21017       70.60267
H         12.57639        3.10560       68.58416
H         13.03016        4.73809       67.93499
H         14.22182        3.75329       68.84622
N          9.88407        8.20766       71.37383
C          8.79045        9.14090       71.58107
C          8.88298       10.30853       70.60217
O          9.87955       11.01499       70.57749
C          8.81235        9.60049       73.06556
C         10.20425        9.84975       73.58064
O         10.75300        9.02465       74.49326
O         10.90048       10.71033       73.07031
H         10.83509        8.59425       71.38229
H          7.80533        8.64782       71.43449
H          8.39520        8.76577       73.66908
H          8.16735       10.49121       73.21790
N          7.81680       10.59768       69.80597
C          7.75002       11.77428       68.94099
C          8.53243       11.53525       67.65255
O          8.31625       10.51045       67.03257
C          6.26827       12.07708       68.66625
C          6.07369       13.36578       67.91943
C          6.03692       13.37306       66.51729
C          5.93040       14.57337       68.62443
C          5.84824       14.57418       65.82863
C          5.74704       15.77190       67.93163
C          5.70182       15.77213       66.53491
H          6.97328       10.01133       69.89699
H          8.13458       12.65169       69.50053
H          5.77720       12.18245       69.66039
H          5.75144       11.23875       68.15108
H          6.15121       12.44961       65.96318
H          5.96720       14.58393       69.70737
H          5.81422       14.57590       64.74750
H          5.63907       16.69977       68.47818
H          5.55416       16.70070       66.00018
N          9.43634       12.45231       67.16767
C         10.29521       12.18639       66.01734
C         11.27980       11.06347       66.27983
O         11.87632       10.55676       65.33372
C         11.09593       13.49179       65.87305
C         10.16875       14.52971       66.47171
C          9.56714       13.79385       67.66655
H          9.63686       11.97720       65.14576
H         11.97688       13.46581       66.55489
H         11.45614       13.69981       64.84151
H         10.64238       15.50079       66.72780
H          9.35789       14.70624       65.72896
H         10.22100       13.77905       68.56356
H          8.59576       14.27948       67.88383
N         11.57839       10.68112       67.55707
C         12.51207        9.61117       67.86069
C         11.92743        8.24933       67.47919
O         12.66141        7.27632       67.43305
C         12.93976        9.72920       69.33111
C         13.97006        8.68852       69.75559
C         14.41763        8.97912       71.14451
O         15.57150        9.30810       71.36348
O         13.50808        8.89524       72.13401
H         11.14246       11.18757       68.34410
H         13.43211        9.77580       67.25688
H         12.05509        9.68870       69.99049
H         13.39629       10.73868       69.45638
H         14.83286        8.71556       69.06093
H         13.51667        7.68141       69.74588
N         10.61859        8.13701       67.11258
C         10.06331        6.93288       66.54274
H          9.02235        7.14192       66.21132
H         10.65500        6.64915       65.64797
H         10.04511        6.10457       67.27414
H         10.00121        8.94302       67.18509
Ca        12.98162        9.07993       74.32093
O         12.48234        8.11803       77.62439
H         12.03249        7.54933       78.29742
H         12.61996        8.98156       78.08848
O         13.36978       12.07928       74.70716
H         13.92622       12.62349       75.31887
H         12.46000       12.12044       75.09596
O         14.56150        9.93723       76.73492
H         15.15378        9.20753       77.04738
H         15.00302       10.76935       77.03619
O         16.03362        9.74708       74.44603
H         16.53747        8.89708       74.45858
H         15.46418        9.68144       73.64624

Ca 1.70



