%chk=loop4.cluster23.chk
%nprocshared=48
%mem=10GB
%nosave
#b3lyp/svp scf=(tight,noincore) Test 
#IOP(5/87=12) Density=Current Pop=(MK,readradii) iop(6/33=2) iop(6/42=6)

loop4.cluster23 

   -3  1 
C         45.59007       40.11832       42.27617
C         45.12061       39.54074       43.58619
O         45.73751       39.80196       44.60845
H         46.62707       39.79403       42.06006
H         44.93980       39.79738       41.43435
H         45.56445       41.22840       42.32232
N         43.99218       38.77151       43.62792
C         43.39057       38.23670       44.85854
C         43.06200       39.38264       45.79819
O         43.36175       39.35575       46.98394
C         44.25131       37.11708       45.45984
C         44.55003       36.12744       44.37977
O         45.78554       36.13925       43.83770
O         43.65816       35.44149       43.90515
H         43.48432       38.60547       42.74543
H         42.41599       37.78582       44.56326
H         43.75344       36.61946       46.31961
H         45.21252       37.54959       45.80288
N         42.49527       40.47725       45.24096
C         42.18844       41.73396       45.90649
C         40.95406       41.59398       46.78277
O         39.97435       41.03378       46.31257
C         41.99112       42.79943       44.77499
C         41.89263       44.23292       45.33042
C         40.78508       42.49734       43.84018
C         42.08653       45.29395       44.24862
H         42.36767       40.43491       44.22427
H         43.08026       42.05715       46.48600
H         42.92932       42.74214       44.17549
H         42.70309       44.40591       46.06568
H         40.91147       44.36847       45.83133
H         40.74206       41.45503       43.47184
H         39.82542       42.69082       44.36052
H         40.83266       43.12189       42.92872
H         41.33140       45.21235       43.44338
H         41.99917       46.30126       44.70370
H         43.10276       45.19113       43.80901
N         40.85735       42.12164       48.03683
C         41.90810       42.85364       48.73723
C         42.86889       41.89012       49.39030
O         44.06522       42.13502       49.38451
C         41.28056       43.71428       49.86470
C         40.30982       44.76394       49.37820
O         40.09331       44.92161       48.18734
O         39.67062       45.53898       50.27417
H         39.94569       42.03012       48.51373
H         42.43257       43.57635       48.08260
H         42.08763       44.24362       50.42013
H         40.74447       43.05344       50.57841
N         42.37775       40.80671       50.05808
C         43.17311       39.94605       50.91307
C         43.69067       40.72230       52.10195
O         42.99121       41.59380       52.60056
H         41.37020       40.60296       49.99447
H         43.99240       39.44626       50.35154
H         42.49997       39.15505       51.30726
N         44.93223       40.46340       52.59898
C         45.52864       41.25135       53.67439
C         46.29539       42.45504       53.11428
O         46.91095       43.17677       53.88556
C         46.40952       40.32982       54.54402
C         46.90907       41.02590       55.78197
O         48.10636       41.09812       56.00648
O         46.03315       41.57080       56.64912
H         45.49133       39.71103       52.17002
H         44.72542       41.63256       54.34576
H         47.26232       39.93982       53.94491
H         45.79561       39.46545       54.87860
N         46.25066       42.77167       51.78515
C         46.87438       43.95629       51.22099
C         48.39218       43.91432       51.12321
O         48.95104       44.89283       50.65374
H         45.67466       42.20787       51.15380
H         46.56178       44.84765       51.81119
H         46.48478       44.09962       50.18900
N         49.12872       42.82890       51.53081
C         50.60365       42.80782       51.54365
C         51.14664       42.98619       50.13778
O         51.90288       43.91231       49.86522
C         51.12753       43.86163       52.54210
C         50.62317       43.56878       53.96672
C         50.55586       44.83273       54.77996
N         49.36038       45.27598       55.24224
O         51.57108       45.47457       55.00122
H         48.64107       41.99257       51.87705
H         50.93891       41.80685       51.89578
H         50.76231       44.85375       52.20934
H         52.23885       43.90841       52.55262
H         51.26252       42.79654       54.44786
H         49.59707       43.15386       53.92988
H         48.49502       44.74996       55.05313
H         49.29450       46.15135       55.77914
N         50.72508       42.13339       49.17291
C         50.96322       42.34430       47.75086
C         52.35272       41.97441       47.26234
O         52.94339       41.00359       47.72114
C         49.84917       41.69517       46.88982
C         49.69402       40.17678       47.11804
C         48.52069       42.41976       47.16064
H         50.04800       41.41844       49.46601
H         50.86407       43.43776       47.55628
H         50.09729       41.85869       45.81746
H         49.38652       39.92350       48.15252
H         48.89932       39.77778       46.45529
H         50.64162       39.64477       46.89769
H         48.21365       42.31676       48.22301
H         48.63293       43.50434       46.93705
H         47.71890       42.01931       46.50936
N         52.88904       42.70361       46.24097
C         54.22814       42.52427       45.68205
C         54.29836       43.22665       44.31415
O         53.63708       44.24308       44.12464
C         55.23400       43.08288       46.70952
C         56.68029       43.00369       46.30209
N         57.43550       44.12753       46.25376
O         57.18499       41.91960       46.04964
H         52.30824       43.47013       45.86801
H         54.41497       41.43812       45.50855
H         55.12843       42.51311       47.65704
H         54.96403       44.13996       46.91894
H         57.02557       45.04589       46.48080
H         58.43323       44.07827       46.00155
N         54.97713       42.66848       43.26903
C         54.78985       43.12300       41.88673
C         54.84744       41.93501       40.94209
O         55.45499       42.00132       39.88394
C         55.76172       44.25736       41.49206
C         57.21905       43.84338       41.52306
C         57.98131       43.82806       40.34087
C         57.83249       43.48864       42.73429
C         59.33276       43.46715       40.37797
C         59.17868       43.12769       42.77000
C         59.93618       43.12196       41.59228
O         61.24386       42.79632       41.62154
H         55.50728       41.79605       43.43832
H         53.74994       43.50765       41.78674
H         55.61965       45.12472       42.16961
H         55.48715       44.59403       40.46702
H         57.53118       44.09707       39.39321
H         57.27443       43.50369       43.65306
H         59.91322       43.46349       39.46405
H         59.63352       42.86081       43.71550
H         61.69443       42.58716       42.45262
N         54.25995       40.77318       41.32744
C         54.36807       39.54522       40.56779
C         53.56958       39.61338       39.26711
O         54.15974       39.29758       38.24333
C         54.04353       38.35578       41.49677
C         54.27813       36.95827       40.90025
C         55.73712       36.64938       40.69174
O         56.58429       36.65628       41.74052
O         56.15064       36.34755       39.58414
H         53.79939       40.73730       42.24813
H         55.43957       39.39033       40.30554
H         53.00712       38.44035       41.83799
H         54.68147       38.44047       42.40692
H         53.70639       36.84790       39.95509
H         53.89596       36.20974       41.62657
N         52.26655       40.02991       39.14715
C         51.36074       40.52849       40.18008
C         50.99803       41.96473       39.79542
O         51.85875       42.82558       39.91345
C         50.13666       39.58754       40.24936
C         50.50348       38.25701       40.90622
C         49.31394       37.36427       41.04368
O         48.26685       37.75599       41.79296
O         49.30378       36.26686       40.51111
H         51.87389       40.02989       38.19146
H         51.79474       40.56067       41.19757
H         49.73755       39.40547       39.22467
H         49.34148       40.05768       40.86849
H         50.86857       38.45635       41.93451
H         51.29617       37.75297       40.31139
N         49.77830       42.28997       39.26232
C         49.46511       43.61654       38.76579
H         48.56561       44.01169       39.28127
H         50.29941       44.33686       38.89552
H         49.24635       43.54228       37.67862
H         49.05363       41.57182       39.13917
Ca        46.44546       35.42230       41.80477
O         46.50135       35.30469       38.89892
H         47.03146       35.98624       38.41529
H         45.79683       35.03026       38.26022
O         48.52526       34.57803       43.44212
H         48.81340       33.71558       43.83125
H         49.11998       35.25723       43.84743
O         43.96642       34.74822       40.93295
H         43.64552       35.42842       41.57110
H         43.79017       35.16478       40.05556
O         46.98767       32.88905       40.72372
H         47.62400       32.38313       40.16030
H         46.19504       32.30210       40.80719

Ca 1.70



