%chk=loop3.cluster199.chk
%nprocshared=48
%mem=10GB
%nosave
#b3lyp/svp scf=(tight,noincore) Test 
#IOP(5/87=12) Density=Current Pop=(MK,readradii) iop(6/33=2) iop(6/42=6)

loop3.cluster199 

   0  1 
C         57.49895       27.22386       48.81219
C         57.52536       26.13330       49.83584
O         57.15536       25.00753       49.52257
H         58.51800       27.64460       48.69259
H         57.14782       26.83666       47.83193
H         56.80600       28.02589       49.14517
N         57.92190       26.40355       51.11146
C         57.89505       25.39175       52.16172
C         57.86188       26.03214       53.55668
O         58.21510       27.19618       53.71322
C         59.01803       24.34373       51.92606
C         58.94086       23.18597       52.86641
O         58.61021       21.95356       52.48352
O         59.21146       23.34455       54.02585
H         58.18095       27.37638       51.34088
H         56.91080       24.87800       52.07175
H         60.02202       24.81868       52.02036
H         58.93453       23.94044       50.89888
N         57.29779       25.35196       54.59394
C         56.93718       25.96383       55.87996
C         58.04805       25.85397       56.92205
O         57.95585       26.46612       57.97385
C         55.59924       25.34223       56.34236
C         54.50118       25.76615       55.35090
C         53.16936       25.05513       55.56441
C         52.18401       25.50876       54.47454
N         50.96455       24.71166       54.50114
H         56.94568       24.40364       54.39462
H         56.77778       27.05533       55.73823
H         55.31560       25.66800       57.36364
H         55.70280       24.23137       56.35318
H         54.82631       25.52360       54.31596
H         54.35875       26.86670       55.42295
H         52.75520       25.27599       56.57279
H         53.33881       23.95958       55.47643
H         52.65497       25.38861       53.47119
H         51.93800       26.58443       54.61434
H         51.21180       23.72841       54.28545
H         50.51242       24.73787       55.44084
H         50.30589       25.05975       53.76728
N         59.13283       25.08620       56.66357
C         60.32686       24.96189       57.48566
C         61.60795       25.19113       56.65141
O         62.62361       25.54710       57.23373
C         60.28951       23.57703       58.16927
C         59.94887       22.45970       57.21426
O         60.73810       22.11545       56.35203
O         58.73035       21.88442       57.27141
H         59.07832       24.50075       55.85453
H         60.32132       25.72602       58.29490
H         59.46030       23.62114       58.90841
H         61.22315       23.35387       58.72908
N         61.63197       25.00946       55.29031
C         62.79369       25.21175       54.44369
C         63.14074       23.92583       53.71895
O         63.29972       23.95162       52.50599
H         60.80084       24.70097       54.80658
H         63.66294       25.59063       55.01329
H         62.52587       25.97612       53.67696
N         63.23562       22.74474       54.39912
C         63.43734       21.46201       53.71905
C         62.24861       21.22176       52.80243
O         61.14365       21.09412       53.29691
C         63.64443       20.34746       54.78201
C         63.66851       18.92287       54.27069
N         64.43111       18.56010       53.21659
O         62.99677       18.07578       54.83886
H         63.09813       22.75557       55.42145
H         64.36803       21.52110       53.11430
H         62.85275       20.40894       55.56230
H         64.61371       20.55965       55.28442
H         65.00028       19.25085       52.71128
H         64.42571       17.57987       52.89439
N         62.39545       21.23943       51.44139
C         61.25753       21.26746       50.51973
C         60.33499       20.05162       50.53200
O         59.32757       20.07294       49.84174
H         63.34091       21.35749       51.04400
H         61.63857       21.39570       49.48185
H         60.65584       22.16636       50.75721
N         60.63240       18.95044       51.26745
C         59.82330       17.72558       51.29622
C         58.42694       17.90086       51.91321
O         58.29186       18.51620       52.95069
C         60.63895       16.68586       52.08006
C         59.98643       15.35277       52.31897
C         59.63999       14.50102       51.25634
C         59.77453       14.93248       53.64013
C         59.11359       13.23055       51.52400
C         59.25132       13.67020       53.90346
C         58.93045       12.80818       52.84750
O         58.45964       11.57033       53.09779
H         61.51956       18.95171       51.78951
H         59.70697       17.33967       50.26070
H         60.90848       17.13499       53.05938
H         61.58786       16.50666       51.52640
H         59.79901       14.80770       50.22948
H         60.03494       15.57955       54.46874
H         58.86665       12.56590       50.70559
H         59.11166       13.35803       54.93004
H         58.36801       11.23889       54.00324
N         57.36335       17.24606       51.35069
C         55.96107       17.24263       51.80207
C         55.70431       16.72639       53.22090
O         56.63633       16.49215       53.98262
C         55.18551       18.57319       51.46756
C         55.29628       18.87166       49.95415
C         55.56071       19.79011       52.32940
C         54.34495       19.96720       49.46747
H         57.56603       16.66173       50.52829
H         55.45939       16.47916       51.16806
H         54.10955       18.38797       51.66519
H         55.02251       17.94939       49.39656
H         56.34215       19.13993       49.69260
H         55.43674       19.55822       53.40649
H         56.59195       20.13276       52.12653
H         54.87458       20.63851       52.11833
H         54.43594       20.06366       48.36510
H         53.29372       19.69821       49.70941
H         54.58743       20.95089       49.91566
N         54.41184       16.54536       53.63062
C         53.98581       16.27071       54.99820
C         52.89424       15.18928       55.09773
O         52.94410       14.39618       56.02276
C         53.45886       17.59019       55.59263
O         52.53132       18.19352       54.73212
H         53.67132       16.75418       52.94766
H         54.83719       15.97228       55.65418
H         54.32954       18.26922       55.71727
H         52.99904       17.41950       56.59079
H         52.53044       19.16326       54.94342
N         51.81996       15.18366       54.24217
C         50.64740       14.31146       54.38830
C         49.99351       14.46723       55.76095
O         49.90457       13.48485       56.48961
C         50.99028       12.84291       54.09114
H         51.79367       15.86124       53.47361
H         49.90077       14.60945       53.61818
H         51.41302       12.74124       53.07114
H         51.70791       12.43020       54.83020
H         50.05693       12.23566       54.13451
N         49.51590       15.65574       56.22562
C         49.52337       16.90132       55.46973
C         48.28268       17.01490       54.59257
O         47.22064       16.64544       55.07037
C         49.48424       18.07563       56.45571
H         49.13853       15.67733       57.18563
H         50.47908       17.02925       54.97337
H         50.35558       18.02428       57.14223
H         49.53705       19.04215       55.91537
H         48.55024       18.05883       57.05605
N         48.25850       17.66348       53.38456
C         49.42244       18.15584       52.65015
C         49.42672       17.69206       51.19517
O         50.49891       17.61294       50.61056
C         49.52840       19.68347       52.77000
C         50.84828       20.19440       52.17570
C         51.11974       21.59663       52.58910
O         50.34615       22.49214       52.28903
O         52.23041       21.86780       53.30239
H         47.32549       17.86219       53.00060
H         50.34431       17.75186       53.08904
H         49.52121       19.92807       53.85203
H         48.65696       20.19433       52.30164
H         50.83403       20.12841       51.06844
H         51.68905       19.57754       52.55811
N         48.27857       17.32262       50.55454
C         48.29123       16.79990       49.20981
H         48.56200       17.59496       48.48407
H         49.01011       15.95682       49.14665
H         47.28010       16.41102       48.96371
H         47.36814       17.38109       51.01988
Ca        58.68471       20.65281       54.32588
O         57.04035       19.18456       55.88826
H         56.20657       19.56625       56.25360
H         56.73589       18.56670       55.18290
O         56.30180       22.04655       54.73899
H         55.71412       21.70991       55.45828
H         55.69398       22.23697       53.98222
O         60.30850       18.94131       55.91737
H         60.21801       18.13832       56.48734
H         60.64735       18.59750       55.05426

Ca 1.70



