%chk=loop4.cluster135.chk
%nprocshared=48
%mem=10GB
%nosave
#b3lyp/svp scf=(tight,noincore) Test 
#IOP(5/87=12) Density=Current Pop=(MK,readradii) iop(6/33=2) iop(6/42=6)

loop4.cluster135 

   -3  1 
C         46.38608       53.08359       68.61607
C         46.17536       54.28375       69.49686
O         47.01719       54.55313       70.32942
H         47.36122       53.14668       68.09032
H         46.37307       52.16890       69.24725
H         45.57959       52.99037       67.85922
N         45.03467       55.02139       69.38394
C         44.63203       56.13267       70.24979
C         45.44427       57.41944       70.11606
O         46.61342       57.46573       70.45779
C         44.32886       55.71355       71.71151
C         45.40459       55.06890       72.54960
O         45.23197       53.93168       72.96115
O         46.45038       55.78168       73.01519
H         44.35636       54.73536       68.66263
H         43.61833       56.40759       69.88755
H         43.48721       54.98887       71.65036
H         43.94589       56.60034       72.26453
N         44.80636       58.54272       69.66389
C         45.32752       59.90483       69.62602
C         46.25555       60.35600       70.75681
O         47.12494       61.18061       70.52143
C         45.77697       60.35196       68.21612
C         44.60610       60.24677       67.20893
C         47.02514       59.57761       67.74507
C         44.85071       61.04449       65.93493
H         43.82055       58.44688       69.37489
H         44.43955       60.53281       69.86678
H         46.03918       61.42679       68.32896
H         43.68911       60.67299       67.67049
H         44.39465       59.18071       66.96569
H         46.74827       58.60403       67.28655
H         47.59106       60.17920       67.00402
H         47.71137       59.36349       68.59273
H         43.95059       60.97983       65.28688
H         45.01255       62.11263       66.19650
H         45.72850       60.65884       65.37986
N         46.04772       59.92490       72.03158
C         46.79168       60.45995       73.17973
C         47.83309       59.46519       73.66296
O         47.68056       58.28997       73.39220
C         45.82243       60.90257       74.30821
C         44.85043       59.86795       74.84284
O         44.77078       58.74894       74.36235
O         44.05083       60.19501       75.87490
H         45.35470       59.18692       72.17917
H         47.35269       61.35803       72.85611
H         45.22189       61.76301       73.94517
H         46.41907       61.25249       75.16960
N         48.97618       59.84390       74.32022
C         49.29882       61.21592       74.69831
C         50.66699       61.28900       75.36501
O         50.93749       60.44933       76.20998
H         49.65316       59.10039       74.55325
H         48.55672       61.56869       75.43996
H         49.26918       61.86165       73.80330
N         51.60044       62.24881       75.07435
C         51.38381       63.40354       74.19518
C         52.66553       64.22301       74.00315
O         53.58055       64.09630       74.80979
C         50.27752       64.33521       74.78482
C         50.50442       64.65904       76.24236
O         49.66637       64.16282       77.17467
O         51.44217       65.35984       76.58672
H         52.51541       62.15396       75.54315
H         51.09872       63.00498       73.20448
H         49.29479       63.84001       74.72047
H         50.17652       65.28030       74.21138
N         52.81967       65.13287       72.99474
C         51.83629       65.38083       71.94308
C         52.45335       65.78566       70.61709
O         51.69433       66.16991       69.73420
H         53.65722       65.73086       73.02046
H         51.19433       66.21964       72.27634
H         51.19075       64.50570       71.73924
N         53.79820       65.70677       70.36952
C         54.37593       66.10520       69.08887
C         54.45803       64.93524       68.11397
O         54.78453       65.16325       66.95906
C         55.67325       66.93165       69.28947
C         56.87019       66.14707       69.85505
C         57.99260       67.07574       70.26432
N         58.64159       67.83850       69.35337
O         58.31857       67.13702       71.44099
H         54.41799       65.28247       71.07150
H         53.67286       66.81444       68.59677
H         55.42110       67.75803       69.99241
H         55.97509       67.39480       68.32448
H         57.23605       65.41177       69.10676
H         56.55799       65.59146       70.76019
H         58.39461       67.79534       68.35506
H         59.40184       68.46856       69.65366
N         54.08723       63.66760       68.48636
C         53.82683       62.60603       67.51270
C         54.99682       61.64775       67.42200
O         55.50827       61.19661       68.43682
C         52.48386       61.89427       67.82669
C         52.18747       60.78906       66.79849
C         51.32617       62.90782       67.81223
H         53.85589       63.47063       69.47065
H         53.69293       63.05523       66.50414
H         52.53864       61.42407       68.83354
H         52.10016       61.21056       65.77412
H         52.99556       60.03279       66.79356
H         51.24051       60.26917       67.05674
H         51.46608       63.67644       68.59891
H         51.26937       63.41963       66.82588
H         50.35811       62.39836       68.00178
N         55.47779       61.32154       66.18603
C         56.72236       60.60405       65.93881
C         56.73202       59.15661       66.42050
O         55.67719       58.55787       66.53147
C         57.91547       61.44520       66.44038
C         57.86313       62.85154       65.91652
N         57.90115       63.08784       64.58416
O         57.79650       63.78566       66.70001
H         54.97529       61.67688       65.35779
H         56.82850       60.52690       64.83351
H         58.87678       61.03991       66.07362
H         57.92045       61.44465       67.55076
H         57.96427       62.30818       63.91264
H         57.87334       64.05240       64.22600
N         57.92513       58.50475       66.59247
C         58.08133       57.06330       66.77929
C         57.33532       56.50186       67.99428
O         56.83312       57.26444       68.81085
C         59.59554       56.72974       66.88869
C         60.46780       57.28471       65.76578
C         61.48049       58.22543       66.05371
C         60.29719       56.85688       64.43874
C         62.31535       58.70679       65.03828
C         61.13891       57.33799       63.42540
C         62.15588       58.25720       63.72519
O         62.98702       58.70651       62.76120
H         58.78529       59.04467       66.49550
H         57.65350       56.57727       65.87323
H         59.74136       55.63146       66.93251
H         59.95063       57.15816       67.85209
H         61.62985       58.58185       67.06533
H         59.52480       56.14174       64.19212
H         63.09611       59.42144       65.27404
H         61.00770       56.98976       62.40880
H         62.92795       58.39104       61.84777
N         57.14635       55.14259       68.10110
C         56.28405       54.45384       69.08212
C         54.78160       54.70496       68.91354
O         54.00029       53.98563       69.51242
C         56.74178       54.63421       70.54576
C         57.90523       53.68909       70.86494
C         58.44046       53.94606       72.23980
O         57.80747       53.45001       73.32038
O         59.45735       54.60502       72.38211
H         57.59367       54.54880       67.38449
H         56.34829       53.36660       68.84867
H         55.92214       54.36295       71.24626
H         57.00561       55.69599       70.73642
H         58.71711       53.81698       70.12045
H         57.55279       52.63163       70.80546
N         54.31688       55.64519       68.05315
C         52.91580       55.80914       67.68274
C         52.81814       55.55373       66.18421
O         51.98656       54.75410       65.77133
C         52.46156       57.23998       68.03023
C         52.34661       57.50930       69.54328
C         51.05046       57.01207       70.12325
O         50.18852       57.89594       70.66486
O         50.76776       55.82508       70.10366
H         54.98071       56.25656       67.59326
H         52.24942       55.08670       68.19917
H         51.48058       57.47482       67.55953
H         53.21659       57.92943       67.60738
H         52.34957       58.60979       69.69255
H         53.21509       57.08961       70.09527
N         53.68444       56.14941       65.31210
C         53.71283       55.85582       63.89957
H         54.74442       56.02882       63.51838
H         53.46712       54.79163       63.70148
H         53.03014       56.54466       63.36437
H         54.41956       56.76788       65.66442
Ca        48.40131       56.14510       71.92036
O         49.04159       53.48815       72.33453
H         49.45461       53.23365       73.19635
H         48.11347       53.14843       72.39051
O         50.00018       55.91856       74.17065
H         50.26845       56.54040       74.89110
H         50.78792       55.33718       74.02556

Ca 1.70



