%chk=loop3.cluster12.chk
%nprocshared=48
%mem=10GB
%nosave
#b3lyp/svp scf=(tight,noincore) Test 
#IOP(5/87=12) Density=Current Pop=(MK,readradii) iop(6/33=2) iop(6/42=6)

loop3.cluster12 

   0  1 
C         77.66912       56.25094       21.10735
C         77.27621       54.90000       20.63406
O         77.99600       54.29018       19.85474
H         78.61511       56.57573       20.63087
H         76.85210       56.95801       20.85993
H         77.80222       56.20937       22.20996
N         76.12633       54.35321       21.09739
C         75.74080       53.00456       20.77028
C         75.51477       52.83159       19.25874
O         74.58847       53.39786       18.69796
C         74.53175       52.61230       21.62399
C         74.34314       51.15167       21.60172
O         73.48224       50.65430       22.28354
O         75.18687       50.39137       20.89034
H         75.55471       54.89237       21.76579
H         76.59136       52.36174       21.10533
H         73.61948       53.15890       21.29962
H         74.74006       52.86185       22.68770
N         76.41503       52.10113       18.54811
C         76.47080       51.94652       17.09796
C         75.28088       51.21724       16.49396
O         74.79608       51.65537       15.46041
C         77.82333       51.27881       16.74454
C         78.07454       51.17837       15.23916
C         79.54970       50.90529       14.90449
C         80.02227       49.47339       15.18768
N         81.44526       49.34564       14.86329
H         77.19364       51.71715       19.07380
H         76.50726       52.96152       16.64619
H         77.94002       50.28841       17.23200
H         78.59844       51.96075       17.15850
H         77.83888       52.17295       14.80769
H         77.40746       50.41987       14.77557
H         80.18557       51.63161       15.45913
H         79.68928       51.09183       13.81934
H         79.43606       48.76830       14.55612
H         79.86681       49.20347       16.25422
H         81.61450       49.59861       13.86189
H         82.00721       49.97829       15.47905
H         81.75546       48.36005       15.01958
N         74.73584       50.12529       17.09801
C         73.51983       49.46973       16.59539
C         72.32687       49.72005       17.51737
O         71.23007       49.29006       17.18241
C         73.73226       47.95520       16.30339
C         74.19998       47.10272       17.44956
O         74.32251       45.89913       17.30507
O         74.57968       47.67013       18.59301
H         75.14807       49.81713       17.98664
H         73.22064       49.91352       15.61963
H         74.48594       47.84493       15.49632
H         72.77172       47.53418       15.93220
N         72.44181       50.47034       18.65614
C         71.29819       50.79905       19.48942
C         70.75957       49.63672       20.29878
O         69.73239       49.81452       20.93915
H         73.34477       50.88692       18.91034
H         70.49801       51.22879       18.84621
H         71.58932       51.58613       20.21832
N         71.39933       48.42649       20.35894
C         70.85163       47.30588       21.12899
C         70.80157       47.55110       22.65395
O         70.26172       46.72059       23.37013
C         71.59539       45.98525       20.80639
C         72.97963       45.85297       21.38669
N         73.58618       44.64605       21.41920
O         73.53574       46.81466       21.87799
H         72.26548       48.28447       19.82120
H         69.81034       47.15980       20.77112
H         71.63906       45.82365       19.70455
H         70.99395       45.16540       21.24472
H         73.10638       43.81155       21.05424
H         74.51580       44.54177       21.85274
N         71.36785       48.66332       23.20428
C         71.33703       49.01790       24.61839
C         72.70693       48.99727       25.28881
O         72.77196       49.26550       26.48074
H         71.82937       49.30602       22.58262
H         70.68365       48.32294       25.18375
H         70.90720       50.03974       24.70596
N         73.82869       48.60945       24.61353
C         75.10553       48.32506       25.26275
C         76.25943       49.02411       24.57694
O         76.31370       49.04856       23.35419
C         75.34469       46.81242       25.19474
C         74.33085       46.08062       26.03498
C         74.59267       45.83994       27.39328
C         73.11630       45.65049       25.47786
C         73.65847       45.16367       28.18095
C         72.18077       44.97777       26.26853
C         72.45216       44.72809       27.62276
O         71.56109       44.07245       28.39313
H         73.75554       48.38570       23.61716
H         75.10410       48.60620       26.34129
H         76.36078       46.57447       25.58000
H         75.30872       46.46036       24.13987
H         75.52118       46.17651       27.83866
H         72.89499       45.84017       24.43576
H         73.87284       44.97762       29.22587
H         71.24722       44.65015       25.82941
H         70.71966       43.75336       28.03735
N         77.27357       49.54598       25.32564
C         78.42745       50.23643       24.76093
C         79.72790       49.48748       25.03863
O         79.80819       48.69225       25.96725
C         78.42824       51.69183       25.31630
C         77.36649       52.51076       24.54059
C         79.80368       52.38839       25.29276
C         77.00898       53.82438       25.22422
H         77.22606       49.45358       26.35282
H         78.33878       50.28938       23.66112
H         78.14563       51.62802       26.39061
H         76.42295       51.92918       24.46734
H         77.72559       52.70281       23.50263
H         79.74816       53.39800       25.74249
H         80.52204       51.82295       25.92597
H         80.20302       52.47525       24.26338
H         77.88041       54.50266       25.29974
H         76.21990       54.33796       24.63705
H         76.61522       53.60926       26.24051
N         80.79425       49.70384       24.21604
C         82.12604       49.14833       24.37744
C         83.14997       50.26904       24.29588
O         82.78195       51.40736       24.04052
C         82.41690       48.11638       23.26002
O         82.39514       48.70385       21.98879
H         80.65653       50.33608       23.42648
H         82.21347       48.63110       25.35482
H         81.69941       47.26666       23.31232
H         83.42554       47.67487       23.39400
H         81.50547       48.53483       21.59495
N         84.47033       50.01062       24.45864
C         85.52385       50.98729       24.19620
C         85.54242       51.38060       22.72380
O         85.65546       52.55653       22.41949
C         86.87296       50.38564       24.58427
H         84.74052       49.05341       24.73870
H         85.38546       51.90420       24.81550
H         87.70135       51.07704       24.32440
H         86.88620       50.21615       25.68293
H         87.03133       49.41413       24.06934
N         85.37969       50.42706       21.76094
C         85.30432       50.73636       20.33096
C         84.25545       51.81077       20.04747
O         84.57288       52.80688       19.41122
C         84.98535       49.44510       19.55730
H         85.25412       49.44917       22.06042
H         86.29220       51.10285       19.97474
H         84.02749       49.00139       19.90273
H         84.91361       49.64233       18.46767
H         85.79047       48.69540       19.72385
N         82.98886       51.68017       20.52137
C         81.92784       52.67562       20.33507
C         82.23898       54.00599       21.01317
O         81.88359       55.03864       20.46434
C         80.60314       52.11544       20.89743
C         80.03445       51.00878       19.98528
C         79.01884       50.16062       20.69139
O         79.38827       49.46836       21.76068
O         77.89206       50.01592       20.26605
H         82.77404       50.83307       21.06130
H         81.76693       52.87369       19.25317
H         79.82513       52.89820       21.01040
H         80.82671       51.74590       21.90791
H         80.83749       50.31633       19.66354
H         79.61277       51.48606       19.07969
N         82.83094       54.05938       22.23744
C         83.06110       55.31102       22.92935
H         83.78599       55.93526       22.36607
H         82.10343       55.86140       23.04800
H         83.47418       55.11343       23.94281
H         83.12497       53.19560       22.69244
Ca        75.30662       48.22362       20.59428
O         77.67610       47.92428       18.35289
H         77.65638       47.82308       17.36846
H         78.57531       47.60831       18.62075
O         76.16484       45.50024       20.03526
H         75.42694       45.23521       19.43454
H         76.60707       44.64710       20.26698
O         77.82607       46.66577       22.04056
H         78.43427       47.41549       21.85949
H         78.42412       45.97660       22.41830

Ca 1.70



