%chk=loop2.cluster239.chk
%nprocshared=48
%mem=10GB
%nosave
#b3lyp/svp scf=(tight,noincore) Test 
#IOP(5/87=12) Density=Current Pop=(MK,readradii) iop(6/33=2) iop(6/42=6)

loop2.cluster239 

   -2  1 
C        115.59469        7.89233       80.24409
C        116.15909        8.62560       81.42608
O        115.58835        9.61827       81.85489
H        114.66302        8.37314       79.87938
H        116.34692        7.91477       79.42671
H        115.38182        6.83408       80.50495
N        117.32205        8.19217       81.98682
C        118.02011        8.91199       83.05549
C        117.23811        8.96548       84.37736
O        117.67548        9.64433       85.29784
C        119.41969        8.27185       83.21050
C        120.35610        9.01568       84.11448
O        120.93836        8.37944       85.14830
O        120.64012       10.17964       83.88113
H        117.76427        7.35228       81.58087
H        118.16466        9.95735       82.70332
H        119.89583        8.25668       82.20440
H        119.31435        7.21949       83.55465
N        116.06398        8.28547       84.52831
C        115.21803        8.34784       85.72209
C        114.02423        7.39286       85.57785
O        113.66193        7.05197       84.45927
C        114.66645        9.77964       85.92603
H        115.76514        7.67711       83.75991
H        115.82949        8.04195       86.59637
H        113.90404        9.83438       86.72885
H        115.46794       10.49607       86.19658
H        114.16761       10.13219       84.99853
N        113.31172        6.94392       86.65177
C        113.70448        7.18775       88.03394
C        114.90941        6.34179       88.41589
O        115.49111        6.59533       89.46336
C        112.52274        6.88361       88.97200
C        112.79832        7.28430       90.40442
O        113.03081        8.45294       90.66117
O        112.74197        6.39394       91.41933
H        112.47317        6.37070       86.47084
H        113.94405        8.25885       88.15769
H        112.30187        5.80425       88.89146
H        111.63919        7.46244       88.61532
N        115.31309        5.27837       87.65137
C        116.41786        4.43436       88.06331
C        117.74880        5.04463       87.66418
O        117.76177        5.97627       86.87137
H        114.78048        5.00473       86.81384
H        116.32912        3.42481       87.60882
H        116.33459        4.29580       89.15953
N        118.93097        4.60992       88.18981
C        119.01945        3.56892       89.20393
C        118.82409        2.19392       88.59112
O        119.49270        1.84368       87.62792
C        120.33160        3.67724       89.98969
C        120.39028        2.67139       91.11995
N        119.43823        2.64783       92.08799
O        121.30920        1.86858       91.15898
H        119.79294        5.10986       87.92087
H        118.24659        3.77044       89.97036
H        120.38583        4.69699       90.43266
H        121.19565        3.54520       89.30506
H        118.65167        3.31328       92.08292
H        119.48540        1.95196       92.84668
N        117.88385        1.37297       89.11674
C        117.54453        0.07219       88.54780
C        116.20029       -0.50227       89.00150
O        115.83371       -1.55994       88.51368
H        117.41989        1.72443       89.95170
H        118.36946       -0.64759       88.74083
H        117.43609        0.18893       87.44708
N        115.38326        0.16544       89.87181
C        114.03479       -0.23684       90.19520
C        113.15668        0.90216       89.76447
O        113.37839        2.02119       90.19359
C        113.89228       -0.42003       91.72691
C        112.44158       -0.71105       92.14496
O        114.70115       -1.47885       92.16393
H        115.66389        1.04210       90.30115
H        113.73660       -1.17981       89.68789
H        114.19310        0.52048       92.24658
H        115.64306       -1.19390       92.03817
H        112.08937       -1.66577       91.70158
H        112.38048       -0.78082       93.25101
H        111.75264        0.10297       91.82970
N        112.10590        0.67269       88.94850
C        111.10912        1.69742       88.70282
C        109.78343        1.22362       89.29329
O        109.69813        0.12561       89.81794
C        111.05296        2.07651       87.19919
C        112.30589        2.90539       86.79888
C        110.85086        0.84887       86.30279
C        112.23503        3.49349       85.38678
H        111.94937       -0.27251       88.57456
H        111.34283        2.62662       89.26256
H        110.18323        2.72842       87.06885
H        113.22415        2.28636       86.89038
H        112.40808        3.76547       87.49762
H        111.79236        0.26399       86.22851
H        110.05423        0.19612       86.71653
H        110.53892        1.16257       85.28617
H        111.35293        4.15131       85.27371
H        113.14050        4.10696       85.19367
H        112.18273        2.69676       84.62066
N        108.70955        2.05414       89.26684
C        107.43394        1.74257       89.88969
C        106.34998        2.67497       89.38950
O        106.52923        3.88204       89.37393
C        107.51700        1.79608       91.43012
C        108.26536        2.98318       91.97608
O        109.40176        2.78554       92.67196
O        107.84916        4.11746       91.80934
H        108.81086        2.95632       88.81985
H        107.12325        0.71583       89.60256
H        108.04413        0.88618       91.77607
H        106.48861        1.76880       91.85939
N        105.15162        2.14564       89.01740
C        104.01749        2.96774       88.62958
C        104.30636        3.75788       87.35426
O        104.62534        3.14226       86.34702
C        102.78082        2.07157       88.38950
C        101.61584        2.86811       87.84588
C        101.20495        2.67536       86.51621
C        100.96304        3.82877       88.63594
C        100.16763        3.44085       85.98134
C         99.92395        4.59376       88.09552
C         99.52850        4.40096       86.76876
H        105.02151        1.12480       89.08037
H        103.78914        3.62686       89.48383
H        102.48606        1.55010       89.32659
H        103.06782        1.29175       87.65055
H        101.70405        1.94714       85.88900
H        101.26568        3.99114       89.66296
H         99.86584        3.29397       84.95274
H         99.42939        5.34070       88.70268
H         98.72832        4.99634       86.34950
N        104.13244        5.12249       87.29481
C        104.24385        5.88639       86.05466
C        105.61795        5.87019       85.42017
O        105.78176        6.35140       84.30700
C        103.97068        7.32349       86.52590
C        103.05422        7.11973       87.71267
C        103.69564        5.93245       88.40965
H        103.46699        5.49545       85.36206
H        104.90733        7.75470       86.95524
H        103.59741        8.00583       85.73534
H        102.91242        8.00204       88.37097
H        102.06519        6.79305       87.31879
H        104.58689        6.20827       89.01666
H        102.91450        5.48920       89.04647
N        106.67626        5.43847       86.14209
C        108.05090        5.48797       85.68568
C        108.21101        4.47050       84.56708
O        108.74189        4.80789       83.51929
C        108.95507        5.21346       86.89114
C        108.70999        6.18627       88.08077
C        109.43058        5.74687       89.31177
O        109.21986        6.35691       90.48599
O        110.20643        4.80956       89.27288
H        106.49739        5.07865       87.08490
H        108.31913        6.50775       85.33237
H        110.02615        5.25690       86.61363
H        108.68727        4.20549       87.21122
H        107.64822        6.21461       88.38070
H        109.01079        7.22134       87.81417
N        107.66164        3.22519       84.69103
C        107.59103        2.30526       83.57452
H        106.99346        2.76549       82.75582
H        108.60387        2.05469       83.20148
H        107.07126        1.37181       83.88318
H        107.20843        2.95062       85.57553
Ca       110.71250        5.64990       91.96128
O        112.58474        3.47422       92.83269
H        112.96601        3.59016       91.92802
H        112.79698        2.53986       93.08012

Ca 1.70



