%chk=loop2.cluster171.chk
%nprocshared=48
%mem=10GB
%nosave
#b3lyp/svp scf=(tight,noincore) Test 
#IOP(5/87=12) Density=Current Pop=(MK,readradii) iop(6/33=2) iop(6/42=6)

loop2.cluster171 

   -2  1 
C         60.64958       46.57555       12.20803
C         61.64319       45.49377       11.90624
O         61.24230       44.37974       11.60430
H         59.64369       46.14844       12.39876
H         60.97930       47.14976       13.09771
H         60.58683       47.27088       11.34133
N         62.97796       45.76835       11.99592
C         64.05384       44.84343       11.62646
C         64.31540       44.92127       10.12585
O         65.39079       45.29770        9.69269
C         65.32205       45.11923       12.47528
C         65.87930       46.52604       12.42378
O         66.93025       46.84390       13.20134
O         65.38895       47.38164       11.70294
H         63.23088       46.69243       12.36730
H         63.76044       43.79501       11.86309
H         66.12564       44.41388       12.16703
H         65.06553       44.89805       13.53245
N         63.31085       44.57620        9.28315
C         63.39710       44.65075        7.83162
C         62.00709       44.44384        7.23924
O         61.14379       43.89848        7.90586
C         64.31750       43.53262        7.32532
H         62.44248       44.25987        9.69925
H         63.75724       45.65969        7.55338
H         63.96426       42.55794        7.73252
H         64.31161       43.45592        6.21991
H         65.36021       43.69237        7.66304
N         61.69270       44.81256        5.97217
C         62.51628       45.59813        5.06042
C         62.71365       47.02696        5.57080
O         61.75338       47.65746        5.97976
C         61.89713       45.60003        3.63707
C         60.42804       45.95826        3.53779
O         60.08102       46.96102        2.96229
O         59.46478       45.14522        3.97631
H         60.75862       44.52628        5.66903
H         63.51512       45.13083        4.92888
H         62.01105       44.58842        3.19079
H         62.49886       46.29761        3.01126
N         63.94641       47.60824        5.54950
C         64.20456       48.95803        6.03303
C         64.74669       49.81823        4.91046
O         65.95876       49.94289        4.81207
H         64.74471       47.07679        5.16860
H         64.97774       48.88238        6.82701
H         63.33359       49.43206        6.52458
N         63.94589       50.43398        3.99027
C         62.48749       50.43504        4.03929
C         61.96262       51.15264        5.26785
O         62.56056       52.11881        5.71996
C         61.89983       51.07608        2.75876
C         62.23053       50.22664        1.55521
N         61.77870       48.96230        1.50537
O         62.90044       50.67230        0.63855
H         64.40510       50.93857        3.21538
H         62.13489       49.38809        4.09397
H         62.28998       52.10774        2.62955
H         60.78970       51.13018        2.83885
H         61.21116       48.64132        2.27889
H         61.98430       48.32561        0.72323
N         60.82640       50.69423        5.86358
C         60.31744       51.24545        7.11092
C         58.85527       50.92451        7.40315
O         58.41074       51.25793        8.49408
H         60.36932       49.87760        5.44539
H         60.38299       52.35613        7.09622
H         60.96694       50.87812        7.93459
N         58.01498       50.39345        6.45741
C         56.57263       50.28995        6.64597
C         56.02177       48.90696        6.34441
O         56.46090       48.23383        5.42360
C         55.84954       51.32135        5.75774
C         56.01469       52.74678        6.30718
O         56.27782       51.22082        4.42064
H         58.36623       50.16699        5.52149
H         56.29357       50.53026        7.69740
H         54.75430       51.12648        5.77723
H         57.12274       51.73507        4.32758
H         55.57140       53.47411        5.59758
H         55.47758       52.83335        7.27815
H         57.08243       53.00083        6.47051
N         54.96781       48.47938        7.08403
C         54.29230       47.19016        6.95747
C         53.27116       47.16284        5.82716
O         52.35536       47.97199        5.80109
C         53.59391       46.78003        8.29997
C         54.53555       45.97321        9.22304
C         52.92334       47.94233        9.06983
C         55.86820       46.64926        9.54796
H         54.63049       49.13903        7.78782
H         55.04237       46.39804        6.74015
H         52.78194       46.06482        8.04145
H         54.77147       45.01185        8.72120
H         53.99708       45.72911       10.16410
H         52.31164       47.54976        9.90459
H         53.66940       48.61537        9.54365
H         52.27361       48.54163        8.39825
H         55.71816       47.61673       10.06458
H         56.45890       45.97784       10.20554
H         56.46124       46.81226        8.62329
N         53.35814       46.17686        4.88961
C         52.39445       45.94592        3.81416
C         52.00789       44.47272        3.77785
O         52.85837       43.61338        3.94787
C         52.95237       46.38842        2.43923
C         54.35605       45.92892        2.20298
O         55.28681       46.34234        3.08499
O         54.65317       45.24558        1.23392
H         54.15307       45.52474        4.95484
H         51.47529       46.55535        3.95996
H         52.99759       47.49724        2.43340
H         52.25833       46.07246        1.62681
N         50.72150       44.12274        3.51493
C         50.24975       42.74025        3.39732
C         50.54981       41.90825        4.65250
O         50.22623       42.36359        5.74153
C         48.72376       42.79150        3.14311
C         48.01322       41.46810        3.27110
C         47.39274       41.13786        4.48953
C         47.94109       40.57167        2.19475
C         46.71590       39.92758        4.63161
C         47.25062       39.36204        2.33875
C         46.64042       39.04082        3.55636
H         50.04551       44.88620        3.35432
H         50.73967       42.28557        2.51793
H         48.50836       43.25570        2.15468
H         48.27866       43.47283        3.90073
H         47.44236       41.81872        5.33115
H         48.40636       40.81448        1.24783
H         46.24682       39.68117        5.57555
H         47.18507       38.67434        1.50651
H         46.10699       38.10625        3.66721
N         51.09630       40.63887        4.58083
C         51.25564       39.77392        5.74587
C         52.32809       40.19804        6.72909
O         52.45486       39.57791        7.77494
C         51.63387       38.41830        5.13081
C         50.95814       38.48820        3.77213
C         51.29844       39.91057        3.34606
H         50.26354       39.71059        6.24670
H         52.72986       38.39517        4.92264
H         51.37794       37.53726        5.75684
H         51.27743       37.70831        3.04980
H         49.85587       38.41826        3.92316
H         52.37453       39.97672        3.06808
H         50.64685       40.19172        2.50023
N         53.16259       41.23187        6.43932
C         54.15957       41.72101        7.38079
C         53.45494       42.29926        8.58749
O         53.92803       42.13208        9.70298
C         55.02072       42.82796        6.75943
C         55.71272       42.40077        5.45644
C         56.61686       43.47227        4.95910
O         56.83612       44.58108        5.69583
O         57.17309       43.33188        3.88285
H         53.06937       41.69970        5.53402
H         54.84983       40.89534        7.67032
H         55.79728       43.10836        7.50748
H         54.39215       43.72048        6.54666
H         54.96180       42.21295        4.66416
H         56.31620       41.48084        5.60007
N         52.28630       42.98473        8.41758
C         51.51431       43.53613        9.50606
H         50.51651       43.04771        9.52082
H         52.00079       43.38715       10.49037
H         51.37115       44.62143        9.33240
H         51.90485       43.09849        7.46791
Ca        57.43499       45.95891        3.49222
O         58.16462       45.38655        1.05741
H         57.40888       45.13710        0.47184
H         58.51824       44.52849        1.40295
O         58.63491       46.82030        6.14043
H         59.48587       47.26630        5.92691
H         58.75969       46.45819        7.05070
O         57.17150       48.34097        1.99509
H         56.99788       47.78787        1.19240
H         56.47561       49.04314        1.96803

Ca 1.70



