%chk=loop1.cluster104.chk
%nprocshared=48
%mem=10GB
%nosave
#b3lyp/svp scf=(tight,noincore) Test 
#IOP(5/87=12) Density=Current Pop=(MK,readradii) iop(6/33=2) iop(6/42=6)

loop1.cluster104 

   0  1 
C         78.14489       85.93276       86.99965
C         79.38411       86.75271       86.85785
O         79.31197       87.83510       86.32171
H         77.26828       86.47798       86.58656
H         78.28434       84.98940       86.43456
H         77.95981       85.70958       88.07082
N         80.57001       86.28645       87.32792
C         81.83651       87.02470       87.24241
C         82.43477       87.10410       85.83066
O         83.50896       87.67299       85.68676
C         82.87822       86.38844       88.20067
C         83.28009       84.97863       87.86652
O         84.45303       84.72370       87.64532
O         82.37213       83.98242       87.87942
H         80.54348       85.38902       87.82372
H         81.67302       88.05757       87.62485
H         82.46925       86.38662       89.23140
H         83.79701       87.01622       88.20324
N         81.82507       86.53220       84.75225
C         82.48402       86.39555       83.45282
C         81.99871       87.45477       82.48489
O         80.79546       87.56590       82.33057
C         82.12099       85.02775       82.83705
C         82.52427       83.80927       83.67175
C         84.04074       83.65680       83.86550
C         84.40928       82.30052       84.50144
N         83.68163       82.04459       85.74197
H         80.90765       86.08337       84.87117
H         83.57746       86.41119       83.57257
H         82.58296       84.93510       81.83211
H         81.01759       84.97908       82.70022
H         82.14670       82.91333       83.13614
H         82.02215       83.86927       84.66101
H         84.41766       84.48639       84.50205
H         84.55804       83.71152       82.88188
H         85.50274       82.30047       84.70829
H         84.19039       81.47722       83.78897
H         84.05294       81.18731       86.20728
H         83.82274       82.84464       86.37837
H         82.66158       81.90528       85.55815
N         82.82779       88.24346       81.73282
C         84.28286       88.18842       81.71835
C         84.84306       89.56516       81.39643
O         85.39097       89.74795       80.31758
C         84.76552       87.11399       80.71247
C         86.27343       87.04385       80.66578
O         86.98253       86.95669       81.80816
O         86.85865       87.10381       79.59589
H         82.38423       88.85473       81.03579
H         84.69940       87.92010       82.70605
H         84.36717       87.31251       79.69043
H         84.38958       86.12712       81.04100
N         84.82791       90.58891       82.29336
C         84.28970       90.52873       83.64756
C         83.74632       91.89874       84.01938
O         84.41898       92.87683       83.72452
H         85.35009       91.43800       82.02730
H         85.14843       90.35341       84.32857
H         83.59027       89.68677       83.80704
N         82.59066       92.10617       84.70908
C         81.75360       91.05678       85.27833
C         80.99114       91.59069       86.50616
O         81.13743       92.74563       86.87980
C         80.81563       90.48168       84.17895
C         79.88578       91.51507       83.59443
O         79.08267       91.22628       82.54988
O         79.87219       92.64768       84.04651
H         82.34749       93.08736       84.91068
H         82.39584       90.24205       85.67482
H         80.23144       89.63382       84.58401
H         81.42604       90.08068       83.35117
N         80.14512       90.76870       87.16972
C         79.34959       91.15960       88.31775
C         77.91528       91.47245       87.94438
O         77.12872       91.71281       88.85307
H         80.02678       89.83145       86.81813
H         79.78606       92.03406       88.84303
H         79.36001       90.30758       89.03446
N         77.48732       91.50107       86.64265
C         76.10780       91.80516       86.26941
C         75.47674       90.59301       85.62044
O         76.18481       89.77262       85.05532
C         76.06134       93.02456       85.30053
C         74.65530       93.57262       85.04902
O         76.58960       92.66859       84.05436
H         78.15475       91.29058       85.88454
H         75.52272       92.06503       87.17891
H         76.64015       93.86932       85.74503
H         77.54146       92.91283       84.05771
H         74.71909       94.43124       84.34420
H         74.00241       92.81033       84.57850
H         74.20040       93.92879       85.99576
N         74.13734       90.41574       85.65005
C         73.44723       89.36633       84.90989
C         72.38757       90.03356       84.05344
O         71.55754       90.77958       84.56622
C         72.90406       88.24485       85.83556
C         71.89850       87.29726       85.12037
C         72.28835       88.81692       87.11461
C         72.48275       86.49576       83.95026
H         73.56950       91.08921       86.19346
H         74.15257       88.83734       84.22896
H         73.76683       87.62499       86.17309
H         71.01784       87.87380       84.76346
H         71.53565       86.55136       85.85799
H         71.85019       88.00415       87.72835
H         73.09335       89.28430       87.72465
H         71.51420       89.57415       86.88555
H         71.69370       85.82732       83.54084
H         72.82931       87.14433       83.12402
H         73.32820       85.86389       84.29399
N         72.41712       89.85176       82.70889
C         71.62232       90.62800       81.76971
C         71.18318       89.82453       80.53097
O         70.27316       90.26791       79.84666
C         72.51174       91.83260       81.37442
C         71.90754       92.76908       80.33800
O         73.73581       91.35874       80.87892
H         73.20236       89.29969       82.34759
H         70.69915       91.00754       82.27096
H         72.68750       92.40911       82.31653
H         74.41176       92.06329       81.05692
H         70.92987       93.15774       80.68255
H         72.60732       93.61720       80.17816
H         71.79465       92.24147       79.36883
N         71.83589       88.68034       80.14161
C         71.57878       87.94707       78.90352
C         71.95375       88.77678       77.68268
O         72.23544       89.96260       77.79928
C         70.13346       87.36339       78.83690
C         69.80963       86.53304       80.08920
O         69.93777       86.58783       77.67310
H         72.60098       88.31048       80.70744
H         72.28407       87.08892       78.90476
H         69.39836       88.19148       78.78937
H         70.10119       85.62673       77.86810
H         70.51968       85.68200       80.18040
H         69.87510       87.15589       81.00376
H         68.77803       86.13103       80.00579
N         72.01562       88.17325       76.46547
C         72.28087       88.85924       75.22055
C         73.61864       88.54263       74.50610
O         73.80705       89.20322       73.49240
C         71.08678       88.55796       74.25293
C         69.90157       89.53746       74.35790
C         69.18878       89.57419       75.71390
C         68.05588       90.61738       75.76439
N         68.53940       91.97829       75.50447
H         71.78317       87.18485       76.40546
H         72.34133       89.95882       75.38315
H         70.75122       87.50005       74.36142
H         71.41824       88.66010       73.19885
H         69.15458       89.26875       73.57804
H         70.30251       90.54372       74.11885
H         69.90705       89.83998       76.50725
H         68.76431       88.57104       75.93588
H         67.61668       90.58020       76.78572
H         67.25238       90.36379       75.03761
H         69.41472       92.17197       76.04376
H         68.71584       92.11175       74.48251
H         67.80820       92.66583       75.79645
N         74.61560       87.64178       74.83813
C         74.77144       86.69118       75.94438
C         73.62955       85.72405       76.08146
O         73.19602       85.45129       77.19322
C         75.25237       87.36336       77.25141
C         76.71289       87.82781       77.10107
C         77.25870       88.49836       78.32372
O         76.53736       88.57319       79.45888
O         78.38250       88.96867       78.29008
H         75.39774       87.60979       74.16359
H         75.60584       86.01261       75.65320
H         75.23629       86.62864       78.08677
H         74.59369       88.21541       77.51262
H         76.78948       88.53192       76.24858
H         77.36539       86.94701       76.89601
N         73.09180       85.14987       74.97156
C         71.96283       84.24638       75.03114
H         71.12140       84.68492       74.45548
H         72.24762       83.27365       74.58273
H         71.61240       84.06857       76.06979
H         73.47818       85.38373       74.04446
Ca        78.97301       89.31673       81.34208
O         78.48523       92.09660       79.57728
H         78.41285       91.27271       79.03827
H         78.87623       92.75531       78.95151
O         80.06289       87.28055       79.62994
H         79.90803       86.31735       79.47237
H         80.93817       87.47176       79.21116
O         78.14529       88.10896       83.65761
H         78.84090       87.50277       84.00750
H         78.16031       88.87047       84.28198
O         80.97671       90.46784       79.94953
H         81.22014       90.39763       78.99433
H         81.62793       91.09759       80.34705
O         76.49252       90.21778       82.07867
H         76.52145       91.19890       82.17913
H         75.69132       90.05054       81.53025
O         78.07377       85.95108       81.64491
H         78.72457       85.91789       82.38787
H         78.40358       85.26442       81.01476

Ca 1.70



