%chk=loop4.cluster163.chk
%nprocshared=48
%mem=10GB
%nosave
#b3lyp/svp scf=(tight,noincore) Test 
#IOP(5/87=12) Density=Current Pop=(MK,readradii) iop(6/33=2) iop(6/42=6)

loop4.cluster163 

   -3  1 
C         78.96006       21.69282       55.83801
C         80.06847       20.72905       56.15678
O         81.20884       21.13642       56.32306
H         78.14729       21.57894       56.58992
H         79.30880       22.74553       55.85459
H         78.54204       21.45815       54.83697
N         79.76460       19.41343       56.30891
C         80.69680       18.35847       56.69231
C         81.49451       18.71303       57.92985
O         82.70769       18.54506       57.92897
C         81.61483       17.88935       55.54248
C         80.88866       17.75376       54.24799
O         81.37008       18.24899       53.24374
O         79.70926       17.10444       54.18375
H         78.77447       19.14034       56.20837
H         80.06095       17.48110       56.94372
H         82.02445       16.89350       55.82561
H         82.47311       18.57879       55.38249
N         80.86842       19.21631       59.03315
C         81.60124       19.52567       60.25448
C         81.03164       18.64895       61.35969
O         79.83810       18.74532       61.60932
C         81.48706       21.02455       60.68378
C         81.48195       22.01299       59.49336
C         82.63735       21.33379       61.66758
C         81.32913       23.47272       59.94065
H         79.84931       19.36887       59.00839
H         82.67319       19.33304       60.07656
H         80.51187       21.17974       61.19694
H         80.59204       21.78120       58.87058
H         82.39306       21.90856       58.86666
H         82.56755       22.35711       62.08287
H         82.62104       20.63341       62.52693
H         83.61688       21.23187       61.14755
H         81.15384       24.12361       59.05978
H         80.46587       23.57885       60.63379
H         82.24795       23.83358       60.44675
N         81.77846       17.77570       62.09029
C         83.20903       17.56439       61.92811
C         83.48467       16.56685       60.81651
O         84.39671       16.79454       60.03481
C         83.84916       17.14260       63.26188
C         83.73826       18.25333       64.28204
O         84.74191       18.83675       64.66061
O         82.53554       18.62175       64.76486
H         81.29436       17.24391       62.83199
H         83.73813       18.51456       61.70296
H         84.92862       16.95352       63.07419
H         83.39504       16.21170       63.66332
N         82.70364       15.45604       60.65664
C         82.90461       14.50800       59.57138
C         84.22275       13.79734       59.72200
O         84.45356       13.15943       60.74030
H         81.91100       15.29834       61.29464
H         82.85014       15.05083       58.59946
H         82.09188       13.75217       59.57560
N         85.14408       13.87819       58.72807
C         86.49789       13.35277       58.83441
C         87.53747       14.45213       58.63560
O         88.71920       14.16311       58.75408
C         86.70980       12.17190       57.84762
C         86.36676       12.38698       56.38691
O         85.86885       13.55196       55.93436
O         86.50872       11.46253       55.60344
H         84.87299       14.37183       57.86780
H         86.68093       12.94340       59.85377
H         86.07460       11.33108       58.19599
H         87.77003       11.83781       57.91215
N         87.18014       15.73504       58.30957
C         88.17145       16.75293       58.00914
C         88.97183       16.43269       56.75771
O         89.88672       17.18724       56.44877
H         86.19451       16.01080       58.24251
H         88.83651       16.88913       58.88645
H         87.64911       17.72049       57.82765
N         88.63656       15.38309       55.93701
C         89.25528       15.11000       54.64752
C         89.23211       16.37705       53.84253
O         90.27187       16.89840       53.47365
C         90.65892       14.50754       54.77737
C         90.60747       13.13044       55.45067
C         91.96584       12.48115       55.52056
N         92.13275       11.35482       56.24646
O         92.92127       12.96910       54.93294
H         87.82727       14.80818       56.17515
H         88.64212       14.35473       54.10490
H         91.32385       15.18790       55.35163
H         91.07155       14.37736       53.75191
H         89.92227       12.44887       54.89474
H         90.21408       13.25826       56.47987
H         91.34216       10.94892       56.76779
H         93.06023       10.91083       56.30960
N         88.02895       16.94733       53.58140
C         87.91110       18.25731       52.96687
C         87.65747       18.14462       51.48386
O         86.95924       17.25051       51.03462
C         86.90371       19.19341       53.70319
C         85.55965       18.52876       54.06308
C         87.52704       19.78787       54.97191
H         87.17689       16.42742       53.82772
H         88.89279       18.77261       53.02488
H         86.70527       20.05910       53.03306
H         85.69844       17.69722       54.78825
H         84.89702       19.26441       54.56681
H         85.04251       18.14622       53.16053
H         86.83077       20.53296       55.41416
H         87.74768       19.00362       55.72205
H         88.46651       20.32581       54.71902
N         88.29738       19.02732       50.66096
C         88.17501       19.03653       49.21587
C         87.77064       20.42515       48.78273
O         88.46635       21.38291       49.08600
C         89.52530       18.66874       48.57930
C         89.51076       18.86858       47.07953
N         88.62424       18.21075       46.29660
O         90.29578       19.65639       46.57286
H         88.90909       19.74009       51.08472
H         87.42243       18.29562       48.87373
H         89.76093       17.60965       48.81868
H         90.32483       19.30778       49.01633
H         87.94736       17.55036       46.70412
H         88.60991       18.37568       45.27909
N         86.64009       20.59372       48.05103
C         86.20492       21.90774       47.60576
C         84.74901       21.77881       47.20043
O         84.38374       22.04956       46.06254
C         87.13046       22.39762       46.46403
C         87.07351       23.88769       46.27937
C         87.66909       24.71894       47.24325
C         86.48065       24.45868       45.14450
C         87.68537       26.10268       47.06792
C         86.48372       25.84807       44.97823
C         87.09570       26.67294       45.93632
O         87.12868       28.01064       45.77357
H         86.05818       19.76894       47.84339
H         86.24879       22.59841       48.47727
H         86.89140       21.83963       45.53191
H         88.19710       22.16951       46.68006
H         88.14459       24.28818       48.11673
H         86.01652       23.83103       44.39431
H         88.16634       26.73070       47.80755
H         86.02033       26.28255       44.10207
H         86.74977       28.43705       44.99220
N         83.87524       21.25984       48.11075
C         82.51368       20.87715       47.78900
C         81.60568       22.09761       47.84394
O         80.99773       22.38474       46.82240
C         82.11101       19.61046       48.61374
C         80.75875       18.98641       48.22050
C         80.55071       17.60964       48.84944
O         80.26624       17.40883       50.15833
O         80.64335       16.62767       48.13445
H         84.24003       21.00472       49.04086
H         82.50227       20.50524       46.73395
H         82.13692       19.77065       49.69952
H         82.89461       18.84848       48.39124
H         80.80139       18.82914       47.11931
H         79.91125       19.67149       48.42406
N         81.45904       22.91824       48.93468
C         82.05061       22.72934       50.26208
C         83.41641       23.39653       50.40068
O         83.85218       24.09258       49.49308
C         81.13695       23.39378       51.33405
C         79.63195       23.08900       51.23949
C         79.31834       21.64349       51.25872
O         78.77000       21.13548       50.29347
O         79.62819       20.87533       52.30686
H         80.82303       23.71991       48.81554
H         82.12133       21.66146       50.50159
H         81.21600       24.49763       51.22634
H         81.50257       23.12039       52.34712
H         79.22293       23.50564       50.29631
H         79.10391       23.58138       52.07886
N         84.11165       23.27914       51.57111
C         85.30433       24.05358       51.84848
H         86.10217       23.85009       51.10591
H         85.04897       25.13622       51.83970
H         85.68378       23.80864       52.86542
H         83.75636       22.65651       52.31225
Ca        79.37636       18.79805       51.65312

Ca 1.70



