%chk=loop2.cluster156.chk
%nprocshared=48
%mem=10GB
%nosave
#b3lyp/svp scf=(tight,noincore) Test 
#IOP(5/87=12) Density=Current Pop=(MK,readradii) iop(6/33=2) iop(6/42=6)

loop2.cluster156 

   -2  1 
   C     67.80000000    89.39000000    96.50000000
   C     68.99000000    88.84000000    97.27000000
   O     68.88000000    87.88000000    98.03000000
   H     66.99200000    89.61700000    97.19500000
   H     68.09400000    90.29900000    95.97600000
   H     67.45900000    88.64800000    95.77800000
   N     70.11000000    89.56000000    97.19000000
   C     71.43000000    89.23000000    97.70000000
   C     71.51000000    89.70000000    99.14000000
   O     72.01000000    88.88000000    99.91000000
   C     72.51000000    89.75000000    96.74000000
   C     73.74000000    89.26000000    97.48000000
   O     74.43000000    90.13000000    98.05000000
   O     73.99000000    88.04000000    97.60000000
   H     70.08000000    90.33000000    96.53000000
   H     71.46000000    88.15000000    97.62000000
   H     72.38000000    90.83000000    96.60000000
   H     72.34000000    89.26000000    95.79000000
   N     71.05000000    90.91000000    99.48000000
   C     70.74000000    91.44000000   100.79000000
   C     69.73000000    90.58000000   101.55000000
   O     69.70000000    90.55000000   102.78000000
   C     72.00000000    91.80000000   101.57000000
   H     70.49000000    91.39000000    98.79000000
   H     70.24000000    92.41000000   100.72000000
   H     72.56000000    92.52000000   100.97000000
   H     71.82000000    92.36000000   102.48000000
   H     72.60000000    90.92000000   101.79000000
   N     68.80000000    89.94000000   100.85000000
   C     67.82000000    89.10000000   101.51000000
   C     68.43000000    88.08000000   102.46000000
   O     67.96000000    87.92000000   103.59000000
   C     66.56000000    89.79000000   102.02000000
   C     66.23000000    91.10000000   101.33000000
   O     66.87000000    92.17000000   101.42000000
   O     65.32000000    91.15000000   100.47000000
   H     68.71000000    90.03000000    99.84000000
   H     67.42000000    88.46000000   100.72000000
   H     66.76000000    89.88000000   103.09000000
   H     65.67000000    89.16000000   101.93000000
   N     69.50000000    87.41000000   102.03000000
   C     70.44000000    86.68000000   102.86000000
   C     70.02000000    85.30000000   103.33000000
   O     69.19000000    84.70000000   102.64000000
   H     69.82000000    87.72000000   101.12000000
   H     70.71000000    87.24000000   103.76000000
   H     71.39000000    86.49000000   102.36000000
   N     70.65000000    84.80000000   104.39000000
   C     70.53000000    83.50000000   105.03000000
   C     70.26000000    82.37000000   104.05000000
   O     69.26000000    81.67000000   104.19000000
   C     69.51000000    83.55000000   106.17000000
   C     69.93000000    84.58000000   107.21000000
   N     69.34000000    85.78000000   107.26000000
   O     70.82000000    84.39000000   108.03000000
   H     71.39000000    85.40000000   104.73000000
   H     71.50000000    83.15000000   105.37000000
   H     69.51000000    82.58000000   106.67000000
   H     68.52000000    83.73000000   105.77000000
   H     68.72000000    86.01000000   106.49000000
   H     69.71000000    86.49000000   107.87000000
   N     71.17000000    82.26000000   103.08000000
   C     71.12000000    81.20000000   102.10000000
   C     70.48000000    81.54000000   100.76000000
   O     70.31000000    80.68000000    99.91000000
   H     71.93000000    82.92000000   103.04000000
   H     70.71000000    80.22000000   102.36000000
   H     72.15000000    80.97000000   101.83000000
   N     70.13000000    82.82000000   100.61000000
   C     69.36000000    83.31000000    99.49000000
   C     67.89000000    82.91000000    99.47000000
   O     67.23000000    82.78000000   100.50000000
   C     69.46000000    84.84000000    99.39000000
   C     70.77000000    85.59000000    99.61000000
   O     69.18000000    85.21000000    98.07000000
   H     70.41000000    83.41000000   101.39000000
   H     69.75000000    82.86000000    98.57000000
   H     68.74000000    85.27000000   100.08000000
   H     69.19000000    86.17000000    98.06000000
   H     71.26000000    85.30000000   100.54000000
   H     71.38000000    85.57000000    98.71000000
   H     70.49000000    86.64000000    99.70000000
   N     67.37000000    82.76000000    98.25000000
   C     66.01000000    82.29000000    98.12000000
   C     64.98000000    83.06000000    98.93000000
   O     65.14000000    84.25000000    99.17000000
   C     65.55000000    82.29000000    96.66000000
   C     65.67000000    83.60000000    95.87000000
   C     66.26000000    81.17000000    95.91000000
   C     65.19000000    83.65000000    94.43000000
   H     67.95000000    82.90000000    97.44000000
   H     65.92000000    81.27000000    98.49000000
   H     64.53000000    81.93000000    96.57000000
   H     66.71000000    83.84000000    95.66000000
   H     65.10000000    84.36000000    96.40000000
   H     65.84000000    80.23000000    96.28000000
   H     66.11000000    81.28000000    94.84000000
   H     67.35000000    81.14000000    96.06000000
   H     65.16000000    84.68000000    94.07000000
   H     65.92000000    83.17000000    93.78000000
   H     64.31000000    83.08000000    94.15000000
   N     63.89000000    82.43000000    99.39000000
   C     62.98000000    82.89000000   100.42000000
   C     63.06000000    82.01000000   101.65000000
   O     62.08000000    81.35000000   102.01000000
   C     61.55000000    83.11000000    99.92000000
   C     60.55000000    83.65000000   100.93000000
   O     60.87000000    84.20000000   102.00000000
   O     59.33000000    83.49000000   100.70000000
   H     63.65000000    81.52000000    99.03000000
   H     63.28000000    83.87000000   100.79000000
   H     61.27000000    82.12000000    99.55000000
   H     61.56000000    83.90000000    99.17000000
   N     64.26000000    82.02000000   102.24000000
   C     64.55000000    81.58000000   103.59000000
   C     64.71000000    80.07000000   103.77000000
   O     64.08000000    79.57000000   104.69000000
   C     65.75000000    82.32000000   104.16000000
   C     65.69000000    82.55000000   105.65000000
   C     66.43000000    81.65000000   106.43000000
   C     64.89000000    83.53000000   106.26000000
   C     66.30000000    81.64000000   107.82000000
   C     64.81000000    83.60000000   107.66000000
   C     65.50000000    82.63000000   108.40000000
   H     65.01000000    82.50000000   101.77000000
   H     63.72000000    81.97000000   104.19000000
   H     65.80000000    83.33000000   103.74000000
   H     66.76000000    82.05000000   103.85000000
   H     67.21000000    81.00000000   106.04000000
   H     64.35000000    84.27000000   105.70000000
   H     66.86000000    81.00000000   108.48000000
   H     64.28000000    84.39000000   108.17000000
   H     65.34000000    82.53000000   109.47000000
   N     65.61000000    79.37000000   103.08000000
   C     66.16000000    79.57000000   101.75000000
   C     65.25000000    78.95000000   100.70000000
   O     65.76000000    78.37000000    99.74000000
   C     67.57000000    78.99000000   101.79000000
   C     67.55000000    77.87000000   102.82000000
   C     66.29000000    78.20000000   103.60000000
   H     66.22000000    80.64000000   101.52000000
   H     68.01000000    78.59000000   100.88000000
   H     68.18000000    79.84000000   102.08000000
   H     67.63000000    76.89000000   102.34000000
   H     68.40000000    78.02000000   103.49000000
   H     65.59000000    77.36000000   103.53000000
   H     66.48000000    78.28000000   104.67000000
   N     63.92000000    78.91000000   100.83000000
   C     63.01000000    78.16000000    99.99000000
   C     62.55000000    78.84000000    98.71000000
   O     62.39000000    80.06000000    98.64000000
   C     61.87000000    77.83000000   100.95000000
   C     62.13000000    76.84000000   102.08000000
   C     62.11000000    75.41000000   101.57000000
   O     61.96000000    74.50000000   102.42000000
   O     62.28000000    75.08000000   100.38000000
   H     63.48000000    79.42000000   101.58000000
   H     63.48000000    77.22000000    99.68000000
   H     60.98000000    77.63000000   100.36000000
   H     61.63000000    78.76000000   101.48000000
   H     61.34000000    76.97000000   102.82000000
   H     63.06000000    77.06000000   102.62000000
   N     62.20000000    78.02000000    97.72000000
   C     61.72000000    78.43000000    96.42000000
   H     60.84300000    79.06600000    96.54100000
   H     62.50200000    78.98500000    95.90200000
   H     61.45100000    77.54900000    95.83700000
   H     62.39000000    77.04000000    97.88000000
  Ca     63.84000000    92.50000000    98.81000000
   O     62.87000000    92.83000000   101.20200000
   H     62.35000000    93.40000000   101.77200000
   H     63.51000000    92.43000000   101.78200000
   O     62.56000000    95.19000000    99.39000000
   H     62.28000000    95.91000000    99.96000000
   H     62.21000000    95.42000000    98.53000000
   O     63.42000000    90.85000000    96.66000000
   H     63.53000000    89.91000000    96.75000000
   H     63.08000000    90.97000000    95.77000000
   O     62.48000000    89.93000000    99.44000000
   H     62.81000000    89.03000000    99.38000000
   H     61.85000000    89.90000000   100.16000000
   O     65.65000000    94.04000000   100.09200000
   H     66.31000000    94.71000000   100.25200000
   H     65.90000000    93.31000000   100.66200000
   O     61.33000000    92.84000000    97.88000000
   H     60.69000000    92.19000000    97.59000000
   H     60.94000000    93.68000000    97.66000000

Ca 1.70



