%chk=loop1.cluster67.chk
%nprocshared=48
%mem=10GB
%nosave
#b3lyp/svp scf=(tight,noincore) Test 
#IOP(5/87=12) Density=Current Pop=(MK,readradii) iop(6/33=2) iop(6/42=6)

loop1.cluster67 

   0  1 
   C     47.37000000    38.63000000     4.66000000
   C     47.51000000    38.54000000     3.14000000
   O     48.39000000    39.10000000     2.49000000
   H     46.31300000    38.62400000     4.92800000
   H     47.86600000    37.77700000     5.12200000
   H     47.82900000    39.55300000     5.01400000
   N     46.69000000    37.57000000     2.72000000
   C     46.83000000    36.95000000     1.42000000
   C     46.08000000    37.72000000     0.35000000
   O     44.87000000    37.57000000     0.21000000
   C     46.43000000    35.48000000     1.42000000
   C     45.12000000    35.12000000     2.12000000
   O     44.20000000    34.56000000     1.47000000
   O     44.88000000    35.53000000     3.27000000
   H     46.10000000    37.18000000     3.44000000
   H     47.90000000    37.02000000     1.21000000
   H     47.20000000    34.92000000     1.95000000
   H     46.43000000    35.16000000     0.38000000
   N     46.92000000    38.53000000    -0.30000000
   C     46.48000000    39.30000000    -1.45000000
   C     47.40000000    39.30000000    -2.65000000
   O     47.58000000    40.39000000    -3.20000000
   C     46.20000000    40.74000000    -1.01000000
   C     45.29000000    40.76000000     0.21000000
   C     43.87000000    40.54000000    -0.31000000
   C     43.02000000    40.58000000     0.96000000
   N     41.59000000    40.36000000     0.67000000
   H     47.91000000    38.48000000    -0.15000000
   H     45.59000000    38.80000000    -1.84000000
   H     45.86000000    41.30000000    -1.88000000
   H     47.17000000    41.17000000    -0.74000000
   H     45.28000000    41.73000000     0.71000000
   H     45.54000000    40.01000000     0.96000000
   H     43.75000000    39.53000000    -0.70000000
   H     43.59000000    41.29000000    -1.05000000
   H     43.05000000    41.50000000     1.54000000
   H     43.32000000    39.74000000     1.58000000
   H     41.48000000    39.46000000     0.23000000
   H     41.10000000    40.47000000     1.55000000
   H     41.26000000    41.10000000     0.06000000
   N     47.96000000    38.24000000    -3.25000000
   C     47.93000000    36.82000000    -2.96000000
   C     46.58000000    36.12000000    -3.00000000
   O     46.24000000    35.38000000    -2.08000000
   C     48.93000000    36.39000000    -1.90000000
   C     50.01000000    37.40000000    -1.56000000
   O     50.95000000    37.71000000    -2.33000000
   O     49.97000000    38.01000000    -0.47000000
   H     48.34000000    38.45000000    -4.16000000
   H     48.48000000    36.41000000    -3.81000000
   H     49.37000000    35.49000000    -2.34000000
   H     48.33000000    36.23000000    -1.00000000
   N     45.72000000    36.28000000    -4.01000000
   C     45.98000000    36.80000000    -5.34000000
   C     44.83000000    36.24000000    -6.16000000
   O     44.00000000    37.01000000    -6.65000000
   H     44.83000000    35.86000000    -3.77000000
   H     46.97000000    36.45000000    -5.66000000
   H     45.97000000    37.89000000    -5.32000000
   N     44.71000000    34.95000000    -6.47000000
   C     45.57000000    33.84000000    -6.10000000
   C     45.05000000    33.11000000    -4.87000000
   O     43.84000000    32.98000000    -4.69000000
   C     45.81000000    33.04000000    -7.38000000
   C     46.79000000    31.92000000    -7.11000000
   O     47.85000000    32.19000000    -6.50000000
   O     46.55000000    30.82000000    -7.67000000
   H     43.85000000    34.69000000    -6.92000000
   H     46.58000000    34.21000000    -5.95000000
   H     46.22000000    33.62000000    -8.21000000
   H     44.85000000    32.61000000    -7.67000000
   N     45.85000000    32.56000000    -3.94000000
   C     45.39000000    31.67000000    -2.90000000
   C     46.33000000    31.39000000    -1.73000000
   O     45.88000000    30.71000000    -0.81000000
   H     46.83000000    32.78000000    -4.01000000
   H     45.28000000    30.71000000    -3.42000000
   H     44.39000000    31.89000000    -2.53000000
   N     47.59000000    31.84000000    -1.67000000
   C     48.55000000    31.51000000    -0.64000000
   C     49.36000000    32.74000000    -0.24000000
   O     49.74000000    33.50000000    -1.12000000
   C     49.44000000    30.37000000    -1.11000000
   C     48.68000000    29.04000000    -1.13000000
   O     50.47000000    30.07000000    -0.20000000
   H     47.94000000    32.27000000    -2.51000000
   H     48.06000000    31.13000000     0.25000000
   H     49.89000000    30.56000000    -2.08000000
   H     50.78000000    29.17000000    -0.30000000
   H     49.30000000    28.27000000    -1.57000000
   H     48.45000000    28.79000000    -0.10000000
   H     47.69000000    29.02000000    -1.58000000
   N     49.62000000    32.93000000     1.06000000
   C     50.49000000    33.94000000     1.61000000
   C     51.92000000    33.87000000     1.07000000
   O     52.41000000    34.94000000     0.70000000
   C     50.24000000    34.15000000     3.10000000
   C     50.88000000    35.43000000     3.63000000
   C     50.70000000    32.91000000     3.86000000
   C     50.44000000    36.69000000     2.91000000
   H     49.36000000    32.13000000     1.61000000
   H     50.04000000    34.83000000     1.16000000
   H     49.17000000    34.23000000     3.29000000
   H     51.96000000    35.39000000     3.65000000
   H     50.44000000    35.57000000     4.62000000
   H     51.76000000    32.72000000     3.69000000
   H     50.53000000    32.92000000     4.94000000
   H     50.16000000    32.01000000     3.55000000
   H     50.67000000    37.60000000     3.46000000
   H     50.97000000    36.74000000     1.96000000
   H     49.36000000    36.64000000     2.77000000
   N     52.56000000    32.71000000     0.98000000
   C     53.93000000    32.33000000     0.71000000
   C     54.96000000    32.86000000     1.71000000
   O     55.81000000    32.07000000     2.11000000
   C     54.33000000    32.65000000    -0.73000000
   C     55.62000000    32.00000000    -1.20000000
   O     54.57000000    34.00000000    -1.04000000
   H     51.97000000    31.91000000     1.19000000
   H     54.05000000    31.26000000     0.88000000
   H     53.55000000    32.24000000    -1.38000000
   H     53.68000000    34.26000000    -1.27000000
   H     55.57000000    30.93000000    -1.01000000
   H     55.67000000    32.22000000    -2.27000000
   H     56.55000000    32.30000000    -0.70000000
   N     54.82000000    34.11000000     2.15000000
   C     55.58000000    34.73000000     3.21000000
   C     57.02000000    35.00000000     2.77000000
   O     57.46000000    34.59000000     1.70000000
   C     55.37000000    34.03000000     4.55000000
   C     55.57000000    34.96000000     5.74000000
   O     56.23000000    32.91000000     4.63000000
   H     54.02000000    34.60000000     1.77000000
   H     55.11000000    35.71000000     3.23000000
   H     54.32000000    33.71000000     4.60000000
   H     56.20000000    32.39000000     3.82000000
   H     55.42000000    34.44000000     6.69000000
   H     56.62000000    35.23000000     5.78000000
   H     55.01000000    35.84000000     5.43000000
   N     57.74000000    35.89000000     3.45000000
   C     59.16000000    36.13000000     3.30000000
   C     59.61000000    37.43000000     2.64000000
   O     60.66000000    37.40000000     2.01000000
   C     59.92000000    35.88000000     4.59000000
   C     59.58000000    34.59000000     5.34000000
   C     59.95000000    33.24000000     4.72000000
   C     59.37000000    32.10000000     5.55000000
   N     59.64000000    30.77000000     4.98000000
   H     57.19000000    36.45000000     4.10000000
   H     59.50000000    35.44000000     2.52000000
   H     59.62000000    36.74000000     5.18000000
   H     60.96000000    35.98000000     4.28000000
   H     58.51000000    34.60000000     5.56000000
   H     60.02000000    34.66000000     6.33000000
   H     61.03000000    33.25000000     4.75000000
   H     59.67000000    33.20000000     3.66000000
   H     58.32000000    32.27000000     5.77000000
   H     59.89000000    32.18000000     6.50000000
   H     59.12000000    30.59000000     4.13000000
   H     60.60000000    30.52000000     4.80000000
   H     59.25000000    30.10000000     5.63000000
   N     59.01000000    38.62000000     2.69000000
   C     57.90000000    39.13000000     3.47000000
   C     57.86000000    38.80000000     4.95000000
   O     57.05000000    37.98000000     5.37000000
   C     56.65000000    38.86000000     2.64000000
   C     55.40000000    39.52000000     3.22000000
   C     54.31000000    39.53000000     2.16000000
   O     53.56000000    38.54000000     2.00000000
   O     54.26000000    40.47000000     1.35000000
   H     59.49000000    39.33000000     2.16000000
   H     58.13000000    40.20000000     3.43000000
   H     56.30000000    37.83000000     2.59000000
   H     56.85000000    39.32000000     1.67000000
   H     55.63000000    40.53000000     3.57000000
   H     54.94000000    39.00000000     4.06000000
   N     58.69000000    39.50000000     5.74000000
   C     58.56000000    39.59000000     7.18000000
   H     57.50400000    39.59400000     7.44900000
   H     59.04900000    38.73400000     7.64400000
   H     59.02700000    40.51000000     7.53100000
   H     59.47000000    40.01000000     5.36000000
  Ca     52.54000000    39.00000000    -0.22200000
   O     54.35000000    39.51000000    -2.18200000
   H     55.17000000    39.03000000    -2.30200000
   H     54.10000000    39.78000000    -3.06200000
   O     50.88000000    39.68000000     1.67000000
   H     50.10000000    39.18000000     1.92000000
   H     50.70000000    40.56000000     1.99000000
   O     51.56000000    41.03000000    -1.51200000
   H     50.66000000    41.32000000    -1.68200000
   H     52.09000000    41.81000000    -1.66200000
   O     53.85000000    36.82000000    -0.75200000
   H     54.35000000    36.30000000    -1.39200000
   H     53.62000000    36.20000000    -0.07200000

Ca 1.70



