%chk=loop1.cluster58.chk
%nprocshared=48
%mem=10GB
%nosave
#b3lyp/svp scf=(tight,noincore) Test 
#IOP(5/87=12) Density=Current Pop=(MK,readradii) iop(6/33=2) iop(6/42=6)

loop1.cluster58 

   0  1 
   C     38.44000000    83.71000000    26.07000000
   C     38.46000000    83.34000000    27.55000000
   O     39.39000000    82.74000000    28.08000000
   H     38.70100000    84.76200000    25.95600000
   H     39.16200000    83.09600000    25.53200000
   H     37.44300000    83.53800000    25.66500000
   N     37.41000000    83.81000000    28.22000000
   C     37.42000000    83.67000000    29.67000000
   C     37.31000000    82.23000000    30.15000000
   O     37.75000000    81.94000000    31.26000000
   C     36.34000000    84.58000000    30.23000000
   C     34.99000000    84.59000000    29.52000000
   O     34.92000000    85.19000000    28.42000000
   O     34.09000000    83.97000000    30.12000000
   H     36.72000000    84.42000000    27.82000000
   H     38.36000000    84.06000000    30.07000000
   H     36.77000000    85.58000000    30.24000000
   H     36.12000000    84.28000000    31.25000000
   N     36.86000000    81.29000000    29.31000000
   C     36.21000000    80.09000000    29.81000000
   C     37.10000000    78.85000000    29.70000000
   O     38.00000000    78.80000000    28.86000000
   C     34.92000000    79.81000000    29.05000000
   C     33.96000000    80.98000000    29.20000000
   C     32.64000000    80.75000000    28.48000000
   C     31.62000000    81.77000000    28.97000000
   N     31.95000000    83.11000000    28.45000000
   H     36.60000000    81.54000000    28.37000000
   H     36.04000000    80.19000000    30.88000000
   H     34.41000000    78.88000000    29.33000000
   H     35.27000000    79.68000000    28.03000000
   H     34.43000000    81.84000000    28.72000000
   H     33.67000000    81.19000000    30.23000000
   H     32.19000000    79.80000000    28.79000000
   H     32.74000000    80.87000000    27.40000000
   H     31.57000000    81.67000000    30.05000000
   H     30.60000000    81.49000000    28.68000000
   H     32.24000000    83.07000000    27.49000000
   H     31.19000000    83.77000000    28.55000000
   H     32.71000000    83.51000000    28.99000000
   N     36.91000000    77.75000000    30.42000000
   C     35.96000000    77.56000000    31.49000000
   C     36.63000000    77.61000000    32.86000000
   O     36.03000000    77.13000000    33.82000000
   C     35.07000000    76.34000000    31.26000000
   C     35.96000000    75.11000000    31.36000000
   O     37.21000000    75.10000000    31.46000000
   O     35.37000000    74.01000000    31.52000000
   H     37.51000000    76.97000000    30.18000000
   H     35.28000000    78.42000000    31.49000000
   H     34.60000000    76.33000000    30.28000000
   H     34.26000000    76.29000000    31.98000000
   N     37.77000000    78.25000000    33.09000000
   C     38.97000000    78.51000000    32.32000000
   C     40.26000000    78.59000000    33.13000000
   O     40.36000000    78.36000000    34.33000000
   H     37.90000000    78.42000000    34.08000000
   H     38.90000000    79.50000000    31.86000000
   H     39.14000000    77.79000000    31.51000000
   N     41.40000000    78.72000000    32.44000000
   C     41.57000000    79.11000000    31.06000000
   C     42.03000000    80.56000000    31.08000000
   O     42.99000000    80.95000000    31.74000000
   C     42.53000000    78.17000000    30.35000000
   C     42.11000000    76.72000000    30.21000000
   O     41.02000000    76.31000000    30.68000000
   O     42.86000000    75.98000000    29.52000000
   H     42.21000000    78.30000000    32.88000000
   H     40.62000000    79.09000000    30.52000000
   H     43.50000000    78.23000000    30.85000000
   H     42.71000000    78.62000000    29.37000000
   N     41.25000000    81.43000000    30.44000000
   C     41.45000000    82.87000000    30.47000000
   C     42.43000000    83.40000000    29.44000000
   O     42.53000000    84.61000000    29.23000000
   H     40.54000000    81.09000000    29.81000000
   H     42.00000000    83.05000000    31.39000000
   H     40.53000000    83.44000000    30.41000000
   N     43.21000000    82.51000000    28.81000000
   C     44.18000000    82.89000000    27.81000000
   C     43.95000000    81.92000000    26.66000000
   O     43.47000000    80.79000000    26.76000000
   C     45.56000000    82.67000000    28.43000000
   C     45.85000000    81.30000000    29.02000000
   O     45.90000000    83.56000000    29.47000000
   H     43.03000000    81.53000000    28.95000000
   H     44.04000000    83.88000000    27.40000000
   H     46.27000000    82.71000000    27.60000000
   H     46.80000000    83.33000000    29.69000000
   H     45.08000000    81.22000000    29.79000000
   H     45.72000000    80.59000000    28.20000000
   H     46.86000000    81.17000000    29.43000000
   N     44.33000000    82.40000000    25.47000000
   C     43.98000000    81.86000000    24.17000000
   C     45.18000000    81.33000000    23.40000000
   O     46.06000000    82.03000000    22.90000000
   C     43.21000000    82.94000000    23.41000000
   C     42.79000000    82.62000000    21.98000000
   C     43.92000000    84.29000000    23.39000000
   C     41.93000000    81.36000000    21.93000000
   H     44.92000000    83.21000000    25.57000000
   H     43.21000000    81.12000000    24.42000000
   H     42.24000000    83.09000000    23.88000000
   H     43.70000000    82.31000000    21.47000000
   H     42.26000000    83.49000000    21.59000000
   H     44.98000000    84.30000000    23.15000000
   H     43.54000000    85.03000000    22.68000000
   H     43.95000000    84.69000000    24.40000000
   H     42.51000000    80.54000000    22.35000000
   H     40.97000000    81.59000000    22.40000000
   H     41.77000000    81.14000000    20.87000000
   N     45.24000000    80.02000000    23.20000000
   C     46.30000000    79.33000000    22.49000000
   C     45.90000000    78.37000000    21.37000000
   O     46.80000000    78.18000000    20.55000000
   C     47.22000000    78.62000000    23.47000000
   C     46.60000000    77.38000000    24.11000000
   O     47.51000000    79.57000000    24.47000000
   H     44.48000000    79.41000000    23.47000000
   H     46.95000000    80.03000000    21.97000000
   H     48.09000000    78.36000000    22.87000000
   H     47.82000000    80.39000000    24.07000000
   H     45.64000000    77.68000000    24.53000000
   H     46.44000000    76.63000000    23.33000000
   H     47.26000000    76.99000000    24.89000000
   N     44.67000000    77.88000000    21.18000000
   C     44.32000000    76.81000000    20.27000000
   C     45.03000000    75.50000000    20.60000000
   O     45.94000000    75.38000000    21.41000000
   C     44.61000000    77.19000000    18.82000000
   C     44.31000000    78.61000000    18.34000000
   O     43.80000000    76.35000000    18.03000000
   H     43.96000000    78.24000000    21.79000000
   H     43.23000000    76.74000000    20.32000000
   H     45.61000000    76.81000000    18.59000000
   H     43.18000000    76.87000000    17.53000000
   H     44.78000000    79.23000000    19.11000000
   H     44.80000000    78.85000000    17.40000000
   H     43.23000000    78.75000000    18.26000000
   N     44.47000000    74.39000000    20.11000000
   C     44.94000000    73.02000000    20.15000000
   C     43.99000000    72.01000000    20.77000000
   O     44.43000000    70.89000000    21.06000000
   C     45.18000000    72.53000000    18.73000000
   C     46.15000000    73.33000000    17.87000000
   C     47.56000000    73.18000000    18.42000000
   C     48.43000000    74.15000000    17.64000000
   N     48.67000000    73.68000000    16.26000000
   H     43.78000000    74.68000000    19.43000000
   H     45.90000000    72.93000000    20.67000000
   H     44.27000000    72.55000000    18.12000000
   H     45.47000000    71.49000000    18.91000000
   H     45.93000000    74.38000000    17.67000000
   H     46.13000000    72.86000000    16.89000000
   H     47.93000000    72.15000000    18.44000000
   H     47.66000000    73.55000000    19.44000000
   H     49.35000000    74.27000000    18.21000000
   H     47.95000000    75.13000000    17.62000000
   H     49.30000000    72.90000000    16.25000000
   H     47.88000000    73.41000000    15.69000000
   H     49.10000000    74.44000000    15.75000000
   N     42.72000000    72.24000000    21.12000000
   C     41.83000000    73.38000000    21.11000000
   C     41.65000000    74.08000000    19.77000000
   O     41.37000000    75.28000000    19.70000000
   C     42.23000000    74.27000000    22.30000000
   C     42.11000000    73.53000000    23.63000000
   C     42.73000000    74.31000000    24.79000000
   O     42.83000000    73.77000000    25.91000000
   O     43.24000000    75.44000000    24.67000000
   H     42.31000000    71.42000000    21.54000000
   H     40.86000000    72.95000000    21.31000000
   H     41.61000000    75.16000000    22.27000000
   H     43.27000000    74.56000000    22.17000000
   H     42.65000000    72.59000000    23.56000000
   H     41.05000000    73.39000000    23.80000000
   N     41.64000000    73.25000000    18.73000000
   C     41.33000000    73.62000000    17.37000000
   H     40.51900000    74.34800000    17.36800000
   H     42.21200000    74.05800000    16.90200000
   H     41.02400000    72.73500000    16.81300000
   H     41.77000000    72.26000000    18.92000000
  Ca     44.10000000    75.60000000    27.26000000
   O     41.74000000    76.93000000    26.70000000
   H     40.92000000    76.43000000    26.68000000
   H     41.57000000    77.69000000    26.14000000
   O     46.38000000    76.00000000    28.96000000
   H     47.07000000    76.59000000    29.25000000
   H     46.84000000    75.20000000    28.71000000
   O     44.91000000    78.09000000    27.19000000
   H     45.73000000    78.51000000    27.43000000
   H     44.32000000    78.82000000    27.00000000
   O     46.47000000    74.69000000    26.39000000
   H     47.14000000    74.16000000    26.82000000
   H     46.69000000    74.65000000    25.46000000
   O     44.36000000    73.33000000    28.63000000
   H     44.59000000    73.05000000    29.52000000
   H     43.80000000    72.63000000    28.29000000

Ca 1.70



