%chk=loop4.cluster17.chk
%nprocshared=48
%mem=10GB
%nosave
#b3lyp/svp scf=(tight,noincore) Test 
#IOP(5/87=12) Density=Current Pop=(MK,readradii) iop(6/33=2) iop(6/42=6)

loop4.cluster17 

   -3  1 
   C     38.74000000    41.67000000    45.83000000
   C     39.23000000    41.73000000    47.28000000
   O     40.24000000    41.10000000    47.54000000
   H     37.87000000    42.31700000    45.71400000
   H     39.53400000    42.00700000    45.16300000
   H     38.46600000    40.64500000    45.58100000
   N     38.68000000    42.59000000    48.15000000
   C     39.07000000    42.85000000    49.52000000
   C     40.55000000    43.20000000    49.62000000
   O     41.39000000    42.45000000    50.10000000
   C     38.64000000    41.76000000    50.49000000
   C     38.93000000    40.30000000    50.20000000
   O     37.95000000    39.53000000    50.05000000
   O     40.10000000    39.89000000    50.37000000
   H     38.04000000    43.25000000    47.74000000
   H     38.58000000    43.79000000    49.78000000
   H     37.58000000    41.86000000    50.72000000
   H     39.13000000    42.00000000    51.44000000
   N     40.89000000    44.36000000    49.06000000
   C     42.11000000    45.13000000    49.18000000
   C     42.21000000    45.78000000    50.56000000
   O     42.49000000    46.96000000    50.74000000
   C     43.37000000    44.48000000    48.62000000
   C     44.48000000    45.51000000    48.50000000
   C     43.08000000    43.68000000    47.35000000
   C     45.90000000    44.98000000    48.29000000
   H     40.14000000    44.88000000    48.62000000
   H     41.88000000    45.93000000    48.47000000
   H     43.61000000    43.70000000    49.34000000
   H     44.47000000    46.25000000    49.30000000
   H     44.22000000    46.15000000    47.65000000
   H     42.38000000    42.87000000    47.55000000
   H     42.65000000    44.18000000    46.48000000
   H     44.01000000    43.24000000    47.00000000
   H     46.00000000    44.31000000    49.14000000
   H     45.95000000    44.47000000    47.33000000
   H     46.58000000    45.83000000    48.37000000
   N     41.91000000    44.95000000    51.56000000
   C     41.70000000    45.22000000    52.97000000
   C     42.54000000    44.52000000    54.02000000
   O     42.60000000    45.07000000    55.12000000
   C     40.23000000    45.22000000    53.38000000
   C     39.35000000    45.77000000    52.27000000
   O     39.46000000    46.96000000    51.90000000
   O     38.55000000    44.97000000    51.74000000
   H     41.72000000    43.99000000    51.31000000
   H     42.00000000    46.26000000    53.12000000
   H     40.06000000    45.65000000    54.36000000
   H     39.92000000    44.18000000    53.47000000
   N     43.14000000    43.34000000    53.86000000
   C     43.16000000    42.35000000    52.80000000
   C     43.32000000    40.94000000    53.34000000
   O     42.30000000    40.28000000    53.53000000
   H     43.53000000    42.97000000    54.72000000
   H     43.86000000    42.59000000    52.00000000
   H     42.15000000    42.51000000    52.41000000
   N     44.55000000    40.46000000    53.56000000
   C     45.86000000    41.05000000    53.38000000
   C     46.35000000    40.99000000    51.94000000
   O     46.10000000    40.02000000    51.23000000
   C     46.77000000    40.40000000    54.43000000
   C     48.18000000    40.97000000    54.29000000
   O     48.40000000    41.96000000    55.01000000
   O     49.06000000    40.42000000    53.59000000
   H     44.55000000    39.56000000    54.03000000
   H     45.76000000    42.11000000    53.61000000
   H     46.86000000    39.33000000    54.25000000
   H     46.38000000    40.54000000    55.44000000
   N     47.00000000    42.02000000    51.41000000
   C     47.16000000    43.38000000    51.90000000
   C     48.44000000    44.13000000    51.58000000
   O     48.49000000    45.36000000    51.68000000
   H     47.27000000    41.90000000    50.44000000
   H     47.12000000    43.27000000    52.98000000
   H     46.41000000    44.12000000    51.62000000
   N     49.47000000    43.34000000    51.27000000
   C     50.86000000    43.75000000    51.18000000
   C     51.19000000    44.48000000    49.89000000
   O     52.33000000    44.91000000    49.72000000
   C     51.72000000    42.51000000    51.40000000
   C     51.63000000    41.27000000    50.51000000
   C     52.45000000    40.18000000    51.18000000
   N     51.90000000    38.97000000    51.19000000
   O     53.56000000    40.41000000    51.66000000
   H     49.32000000    42.34000000    51.27000000
   H     51.03000000    44.44000000    52.00000000
   H     51.41000000    42.15000000    52.39000000
   H     52.74000000    42.88000000    51.49000000
   H     52.13000000    41.53000000    49.57000000
   H     50.58000000    40.96000000    50.48000000
   H     50.99000000    38.74000000    50.81000000
   H     52.40000000    38.33000000    51.80000000
   N     50.25000000    44.58000000    48.94000000
   C     50.43000000    45.07000000    47.59000000
   C     50.94000000    43.88000000    46.78000000
   O     50.27000000    42.85000000    46.75000000
   C     49.29000000    45.87000000    46.98000000
   C     49.62000000    46.32000000    45.56000000
   C     48.94000000    47.14000000    47.75000000
   H     49.48000000    43.94000000    49.02000000
   H     51.23000000    45.80000000    47.51000000
   H     48.41000000    45.23000000    46.98000000
   H     49.73000000    45.45000000    44.91000000
   H     48.74000000    46.91000000    45.31000000
   H     50.51000000    46.96000000    45.54000000
   H     49.78000000    47.83000000    47.77000000
   H     48.07000000    47.59000000    47.27000000
   H     48.54000000    46.88000000    48.73000000
   N     52.11000000    44.09000000    46.18000000
   C     52.84000000    43.10000000    45.41000000
   C     52.14000000    42.57000000    44.17000000
   O     52.18000000    43.25000000    43.15000000
   C     53.52000000    42.11000000    46.34000000
   C     54.67000000    42.56000000    47.23000000
   N     54.48000000    43.45000000    48.21000000
   O     55.81000000    42.18000000    46.97000000
   H     52.49000000    45.03000000    46.13000000
   H     53.69000000    43.65000000    45.00000000
   H     53.92000000    41.28000000    45.76000000
   H     52.75000000    41.67000000    46.98000000
   H     53.56000000    43.82000000    48.39000000
   H     55.18000000    43.43000000    48.93000000
   N     51.59000000    41.36000000    44.31000000
   C     51.07000000    40.45000000    43.32000000
   C     50.17000000    39.40000000    43.96000000
   O     50.04000000    39.32000000    45.18000000
   C     52.19000000    39.85000000    42.47000000
   C     53.34000000    39.31000000    43.28000000
   C     53.13000000    38.26000000    44.19000000
   C     54.59000000    39.93000000    43.21000000
   C     54.13000000    37.93000000    45.11000000
   C     55.65000000    39.47000000    44.00000000
   C     55.41000000    38.50000000    45.00000000
   O     56.38000000    38.23000000    45.93000000
   H     51.61000000    41.03000000    45.27000000
   H     50.46000000    41.01000000    42.61000000
   H     52.67000000    40.69000000    41.96000000
   H     51.79000000    39.13000000    41.75000000
   H     52.21000000    37.70000000    44.25000000
   H     54.78000000    40.75000000    42.52000000
   H     53.90000000    37.21000000    45.89000000
   H     56.56000000    40.05000000    43.99000000
   H     57.15000000    38.80000000    45.82000000
   N     49.54000000    38.58000000    43.11000000
   C     48.40000000    37.68000000    43.23000000
   C     47.08000000    38.32000000    43.63000000
   O     46.03000000    37.86000000    43.19000000
   C     48.77000000    36.53000000    44.16000000
   C     49.92000000    35.71000000    43.60000000
   C     49.68000000    35.04000000    42.26000000
   O     48.49000000    34.82000000    41.91000000
   O     50.71000000    34.79000000    41.60000000
   H     49.66000000    38.84000000    42.15000000
   H     48.24000000    37.25000000    42.24000000
   H     47.93000000    35.84000000    44.28000000
   H     48.99000000    36.88000000    45.17000000
   H     50.05000000    34.95000000    44.37000000
   H     50.75000000    36.39000000    43.44000000
   N     47.06000000    39.48000000    44.29000000
   C     45.95000000    40.42000000    44.32000000
   C     45.91000000    41.18000000    43.00000000
   O     45.05000000    40.96000000    42.15000000
   C     45.93000000    41.39000000    45.50000000
   C     45.81000000    40.72000000    46.87000000
   C     44.48000000    40.09000000    47.26000000
   O     44.53000000    39.10000000    48.03000000
   O     43.38000000    40.58000000    46.94000000
   H     47.90000000    39.78000000    44.77000000
   H     45.14000000    39.71000000    44.47000000
   H     45.08000000    42.06000000    45.36000000
   H     46.82000000    42.02000000    45.50000000
   H     46.12000000    41.47000000    47.60000000
   H     46.54000000    39.91000000    46.86000000
   N     46.93000000    42.01000000    42.80000000
   C     47.17000000    42.74000000    41.57000000
   H     48.21000000    42.61200000    41.27000000
   H     46.51600000    42.35700000    40.78600000
   H     46.96600000    43.79900000    41.72900000
   H     47.54000000    42.22000000    43.58000000
  Ca     41.81000000    39.48000000    48.63000000
   O     41.76000000    36.94000000    49.17000000
   H     42.41000000    36.32000000    49.52000000
   H     41.13000000    36.39000000    48.71000000
   O     43.35000000    39.04000000    50.91000000
   H     42.88000000    38.47000000    51.51000000
   H     44.22000000    39.14000000    51.30000000
   O     42.29000000    37.87000000    46.48000000
   H     41.50000000    37.66000000    45.97000000
   H     43.01000000    37.56000000    45.93000000
   O     39.54000000    38.25000000    47.59000000
   H     38.76000000    38.41000000    48.13000000
   H     39.27000000    37.59000000    46.96000000

Ca 1.70



