%chk=loop1.cluster107.chk
%nprocshared=48
%mem=10GB
%nosave
#b3lyp/svp scf=(tight,noincore) Test 
#IOP(5/87=12) Density=Current Pop=(MK,readradii) iop(6/33=2) iop(6/42=6)

loop1.cluster107 

   0  1 
   C     40.66000000    93.93000000   119.44000000
   C     41.23000000    93.37000000   120.74000000
   O     41.71000000    92.24000000   120.71000000
   H     39.77000000    94.52000000   119.65900000
   H     41.40500000    94.56300000   118.95900000
   H     40.39600000    93.10800000   118.77400000
   N     41.14000000    94.04000000   121.89000000
   C     41.51000000    93.61000000   123.23000000
   C     40.60000000    92.82000000   124.16000000
   O     40.79000000    92.80000000   125.37000000
   C     42.00000000    94.86000000   123.95000000
   C     40.95000000    95.96000000   124.06000000
   O     40.90000000    96.78000000   123.12000000
   O     40.27000000    96.12000000   125.09000000
   H     40.67000000    94.93000000   121.87000000
   H     42.43000000    93.04000000   123.21000000
   H     42.83000000    95.25000000   123.35000000
   H     42.40000000    94.57000000   124.92000000
   N     39.58000000    92.18000000   123.58000000
   C     38.52000000    91.52000000   124.31000000
   C     38.20000000    90.17000000   123.68000000
   O     37.38000000    89.98000000   122.79000000
   C     37.28000000    92.40000000   124.21000000
   C     37.53000000    93.67000000   125.02000000
   C     36.30000000    94.58000000   125.03000000
   C     36.53000000    95.98000000   125.59000000
   N     37.49000000    96.72000000   124.75000000
   H     39.55000000    92.25000000   122.57000000
   H     38.83000000    91.41000000   125.35000000
   H     36.41000000    91.97000000   124.72000000
   H     37.04000000    92.69000000   123.19000000
   H     38.42000000    94.14000000   124.61000000
   H     37.61000000    93.27000000   126.03000000
   H     35.47000000    94.11000000   125.56000000
   H     36.02000000    94.59000000   123.98000000
   H     36.93000000    95.94000000   126.60000000
   H     35.72000000    96.71000000   125.60000000
   H     37.63000000    97.70000000   124.94000000
   H     38.39000000    96.27000000   124.85000000
   H     37.27000000    96.60000000   123.77000000
   N     38.78000000    89.04000000   124.10000000
   C     39.47000000    88.67000000   125.32000000
   C     38.74000000    88.84000000   126.65000000
   O     37.88000000    89.70000000   126.80000000
   C     40.90000000    89.19000000   125.37000000
   C     41.77000000    88.82000000   124.17000000
   O     42.41000000    89.69000000   123.54000000
   O     41.80000000    87.64000000   123.76000000
   H     38.60000000    88.25000000   123.49000000
   H     39.45000000    87.58000000   125.25000000
   H     41.36000000    88.77000000   126.26000000
   H     40.94000000    90.27000000   125.49000000
   N     39.00000000    87.93000000   127.59000000
   C     39.82000000    86.74000000   127.68000000
   C     41.16000000    86.83000000   128.40000000
   O     41.18000000    87.33000000   129.52000000
   H     38.20000000    87.91000000   128.22000000
   H     39.97000000    86.39000000   126.66000000
   H     39.26000000    85.93000000   128.17000000
   N     42.29000000    86.33000000   127.90000000
   C     42.55000000    85.79000000   126.58000000
   C     44.05000000    85.92000000   126.37000000
   O     44.82000000    85.04000000   126.72000000
   C     42.08000000    84.34000000   126.45000000
   C     42.46000000    83.63000000   125.17000000
   O     42.55000000    82.39000000   125.17000000
   O     42.60000000    84.36000000   124.16000000
   H     43.08000000    86.38000000   128.52000000
   H     41.99000000    86.32000000   125.81000000
   H     40.99000000    84.39000000   126.49000000
   H     42.53000000    83.69000000   127.20000000
   N     44.59000000    87.00000000   125.80000000
   C     45.96000000    86.96000000   125.31000000
   C     46.24000000    88.09000000   124.33000000
   O     46.05000000    89.27000000   124.64000000
   H     44.00000000    87.70000000   125.39000000
   H     46.16000000    86.02000000   124.79000000
   H     46.63000000    87.09000000   126.16000000
   N     46.73000000    87.74000000   123.14000000
   C     47.01000000    88.72000000   122.11000000
   C     46.35000000    88.34000000   120.79000000
   O     45.78000000    87.26000000   120.64000000
   C     48.51000000    88.92000000   121.88000000
   C     49.14000000    87.72000000   121.17000000
   O     49.22000000    89.00000000   123.10000000
   H     46.91000000    86.78000000   122.91000000
   H     46.56000000    89.68000000   122.34000000
   H     48.74000000    89.85000000   121.38000000
   H     48.87000000    89.81000000   123.48000000
   H     48.92000000    87.66000000   120.10000000
   H     50.22000000    87.89000000   121.25000000
   H     48.85000000    86.86000000   121.76000000
   N     46.31000000    89.24000000   119.80000000
   C     45.60000000    89.10000000   118.55000000
   C     46.55000000    88.38000000   117.59000000
   O     47.64000000    88.84000000   117.25000000
   C     45.16000000    90.49000000   118.12000000
   C     44.55000000    90.43000000   116.72000000
   C     46.22000000    91.59000000   118.17000000
   C     43.26000000    89.61000000   116.59000000
   H     46.93000000    90.04000000   119.84000000
   H     44.71000000    88.48000000   118.63000000
   H     44.28000000    90.72000000   118.72000000
   H     45.24000000    89.96000000   116.02000000
   H     44.38000000    91.44000000   116.36000000
   H     45.80000000    92.59000000   118.06000000
   H     46.75000000    91.70000000   119.12000000
   H     46.95000000    91.46000000   117.37000000
   H     43.52000000    88.55000000   116.64000000
   H     42.65000000    89.82000000   117.47000000
   H     42.72000000    89.90000000   115.69000000
   N     46.14000000    87.27000000   116.98000000
   C     46.88000000    86.64000000   115.90000000
   C     45.98000000    85.96000000   114.88000000
   O     46.54000000    85.52000000   113.88000000
   C     48.00000000    85.72000000   116.37000000
   C     47.55000000    84.31000000   116.73000000
   O     48.65000000    86.22000000   117.52000000
   H     45.29000000    86.85000000   117.32000000
   H     47.31000000    87.51000000   115.41000000
   H     48.72000000    85.46000000   115.59000000
   H     48.90000000    87.11000000   117.28000000
   H     46.65000000    84.24000000   117.34000000
   H     47.32000000    83.69000000   115.86000000
   H     48.33000000    83.79000000   117.30000000
   N     44.66000000    85.92000000   115.02000000
   C     43.75000000    85.12000000   114.22000000
   C     43.96000000    83.63000000   114.44000000
   O     45.07000000    83.15000000   114.65000000
   C     43.87000000    85.54000000   112.75000000
   C     43.53000000    87.02000000   112.62000000
   O     42.90000000    84.80000000   112.04000000
   H     44.25000000    86.43000000   115.79000000
   H     42.76000000    85.41000000   114.57000000
   H     44.84000000    85.36000000   112.30000000
   H     42.68000000    85.26000000   111.22000000
   H     44.27000000    87.66000000   113.09000000
   H     43.47000000    87.29000000   111.56000000
   H     42.53000000    87.26000000   112.98000000
   N     42.86000000    82.88000000   114.32000000
   C     42.89000000    81.43000000   114.23000000
   C     42.27000000    80.68000000   115.40000000
   O     42.59000000    79.51000000   115.57000000
   C     42.25000000    81.01000000   112.91000000
   C     43.12000000    81.16000000   111.66000000
   C     44.48000000    80.48000000   111.74000000
   C     45.28000000    80.59000000   110.45000000
   N     44.67000000    79.84000000   109.35000000
   H     41.98000000    83.33000000   114.12000000
   H     43.94000000    81.14000000   114.26000000
   H     41.36000000    81.61000000   112.72000000
   H     41.92000000    79.97000000   112.94000000
   H     43.33000000    82.20000000   111.40000000
   H     42.62000000    80.74000000   110.79000000
   H     44.26000000    79.43000000   111.98000000
   H     45.05000000    80.98000000   112.52000000
   H     46.31000000    80.24000000   110.58000000
   H     45.28000000    81.66000000   110.24000000
   H     43.78000000    80.27000000   109.14000000
   H     45.25000000    80.00000000   108.54000000
   H     44.62000000    78.86000000   109.59000000
   N     41.33000000    81.21000000   116.18000000
   C     40.65000000    82.48000000   116.32000000
   C     39.99000000    83.01000000   115.05000000
   O     40.23000000    84.12000000   114.57000000
   C     41.45000000    83.53000000   117.09000000
   C     41.70000000    83.00000000   118.51000000
   C     42.80000000    83.81000000   119.17000000
   O     44.00000000    83.70000000   118.82000000
   O     42.50000000    84.61000000   120.09000000
   H     40.98000000    80.50000000   116.81000000
   H     39.84000000    82.24000000   117.01000000
   H     41.06000000    84.54000000   117.07000000
   H     42.43000000    83.60000000   116.62000000
   H     41.95000000    81.95000000   118.41000000
   H     40.73000000    83.07000000   118.99000000
   N     39.31000000    82.11000000   114.33000000
   C     38.75000000    82.40000000   113.02000000
   H     37.86100000    83.02100000   113.13500000
   H     39.48800000    82.93000000   112.41800000
   H     38.47900000    81.46700000   112.52500000
   H     39.10000000    81.24000000   114.79000000
  Ca     41.52000000    85.70000000   122.14300000
   O     44.33000000    85.73000000   122.12300000
   H     44.73000000    85.25000000   122.85300000
   H     45.06000000    86.18000000   121.69300000
   O     39.55000000    85.42000000   124.19300000
   H     39.26000000    84.65000000   124.68300000
   H     38.75000000    85.92000000   124.02300000
   O     40.93000000    82.91000000   121.92300000
   H     41.67000000    82.35000000   122.15300000
   H     40.17000000    82.47000000   122.31300000
   O     42.82000000    88.11000000   121.13300000
   H     43.76000000    88.07000000   120.95300000
   H     42.74000000    88.70000000   121.88300000
   O     40.21000000    87.99000000   121.48300000
   H     39.81000000    88.47000000   120.75300000
   H     40.87000000    88.59000000   121.82300000
   O     38.92000000    85.47000000   121.40300000
   H     38.37000000    84.84000000   121.86300000
   H     38.53000000    85.55000000   120.54300000

Ca 1.70



