%chk=loop2.cluster141.chk
%nprocshared=48
%mem=10GB
%nosave
#b3lyp/svp scf=(tight,noincore) Test 
#IOP(5/87=12) Density=Current Pop=(MK,readradii) iop(6/33=2) iop(6/42=6)

loop2.cluster141 

   -2  1 
   C     63.23000000    59.68000000    11.07000000
   C     62.01000000    59.97000000    11.93000000
   O     62.05000000    60.79000000    12.84000000
   H     64.08000000    59.44700000    11.71200000
   H     63.02300000    58.83000000    10.42000000
   H     63.46300000    60.55400000    10.46200000
   N     60.85000000    59.43000000    11.54000000
   C     59.64000000    59.52000000    12.32000000
   C     59.77000000    58.75000000    13.63000000
   O     59.96000000    57.53000000    13.62000000
   C     58.45000000    58.96000000    11.55000000
   C     57.14000000    58.99000000    12.32000000
   O     56.11000000    58.43000000    11.88000000
   O     57.15000000    59.61000000    13.41000000
   H     60.86000000    58.81000000    10.75000000
   H     59.44000000    60.57000000    12.52000000
   H     58.68000000    57.94000000    11.24000000
   H     58.28000000    59.52000000    10.63000000
   N     59.85000000    59.50000000    14.73000000
   C     60.00000000    59.04000000    16.09000000
   C     58.91000000    58.12000000    16.62000000
   O     59.16000000    57.44000000    17.61000000
   C     60.01000000    60.24000000    17.04000000
   H     59.72000000    60.48000000    14.56000000
   H     60.96000000    58.53000000    16.20000000
   H     60.19000000    59.89000000    18.05000000
   H     60.82000000    60.92000000    16.82000000
   H     59.04000000    60.74000000    17.00000000
   N     57.68000000    58.12000000    16.10000000
   C     56.53000000    57.27000000    16.32000000
   C     56.46000000    56.02000000    15.46000000
   O     55.88000000    54.98000000    15.78000000
   C     55.23000000    58.07000000    16.35000000
   C     55.34000000    59.46000000    16.96000000
   O     55.85000000    60.32000000    16.21000000
   O     54.90000000    59.70000000    18.10000000
   H     57.56000000    58.72000000    15.29000000
   H     56.68000000    56.96000000    17.36000000
   H     54.49000000    57.47000000    16.87000000
   H     54.76000000    58.05000000    15.36000000
   N     56.99000000    56.22000000    14.26000000
   C     57.08000000    55.18000000    13.24000000
   C     55.80000000    55.02000000    12.45000000
   O     55.58000000    53.92000000    11.94000000
   H     57.52000000    57.08000000    14.20000000
   H     57.44000000    54.24000000    13.67000000
   H     57.87000000    55.40000000    12.52000000
   N     54.93000000    56.03000000    12.38000000
   C     53.61000000    56.07000000    11.79000000
   C     53.73000000    56.43000000    10.31000000
   O     52.91000000    55.93000000     9.55000000
   C     52.58000000    56.81000000    12.64000000
   C     51.59000000    57.71000000    11.91000000
   N     50.37000000    57.24000000    11.69000000
   O     51.86000000    58.83000000    11.48000000
   H     55.28000000    56.88000000    12.79000000
   H     53.29000000    55.03000000    11.72000000
   H     53.07000000    57.33000000    13.46000000
   H     51.97000000    56.06000000    13.14000000
   H     50.09000000    56.27000000    11.75000000
   H     49.86000000    57.94000000    11.17000000
   N     54.71000000    57.25000000     9.94000000
   C     54.82000000    57.70000000     8.57000000
   C     54.43000000    59.15000000     8.35000000
   O     54.20000000    59.54000000     7.20000000
   H     55.21000000    57.80000000    10.63000000
   H     54.17000000    57.09000000     7.94000000
   H     55.86000000    57.61000000     8.27000000
   N     54.36000000    59.97000000     9.40000000
   C     54.19000000    61.41000000     9.47000000
   C     55.29000000    62.16000000    10.20000000
   O     55.59000000    61.87000000    11.36000000
   C     52.79000000    61.69000000    10.01000000
   C     52.26000000    63.06000000     9.60000000
   O     51.82000000    60.75000000     9.59000000
   H     54.50000000    59.53000000    10.30000000
   H     54.14000000    61.72000000     8.43000000
   H     52.75000000    61.62000000    11.10000000
   H     51.88000000    60.04000000    10.23000000
   H     52.12000000    63.08000000     8.51000000
   H     51.27000000    63.03000000    10.05000000
   H     52.99000000    63.83000000     9.85000000
   N     55.62000000    63.32000000     9.63000000
   C     56.75000000    64.17000000     9.95000000
   C     56.32000000    65.38000000    10.78000000
   O     55.71000000    66.33000000    10.30000000
   C     57.50000000    64.47000000     8.66000000
   C     58.14000000    63.28000000     7.95000000
   C     58.59000000    65.53000000     8.82000000
   C     59.27000000    62.64000000     8.75000000
   H     55.27000000    63.53000000     8.71000000
   H     57.37000000    63.59000000    10.64000000
   H     56.75000000    64.95000000     8.04000000
   H     58.64000000    63.63000000     7.04000000
   H     57.36000000    62.58000000     7.67000000
   H     59.40000000    65.22000000     9.48000000
   H     59.09000000    65.75000000     7.88000000
   H     58.21000000    66.46000000     9.24000000
   H     59.68000000    61.72000000     8.33000000
   H     60.16000000    63.27000000     8.74000000
   H     58.97000000    62.30000000     9.73000000
   N     56.82000000    65.41000000    12.02000000
   C     56.84000000    66.59000000    12.86000000
   C     58.06000000    67.42000000    12.47000000
   O     58.99000000    66.95000000    11.83000000
   C     56.84000000    66.17000000    14.32000000
   C     55.71000000    65.21000000    14.65000000
   O     55.93000000    64.08000000    15.16000000
   O     54.54000000    65.62000000    14.47000000
   H     57.33000000    64.58000000    12.31000000
   H     55.88000000    67.09000000    12.75000000
   H     56.69000000    67.14000000    14.81000000
   H     57.82000000    65.81000000    14.63000000
   N     58.10000000    68.70000000    12.82000000
   C     59.20000000    69.58000000    12.46000000
   C     60.50000000    69.07000000    13.07000000
   O     61.46000000    69.00000000    12.30000000
   C     58.88000000    71.01000000    12.86000000
   C     59.97000000    72.03000000    12.63000000
   C     60.44000000    72.31000000    11.33000000
   C     60.56000000    72.69000000    13.71000000
   C     61.51000000    73.19000000    11.18000000
   C     61.65000000    73.54000000    13.49000000
   C     62.13000000    73.88000000    12.23000000
   H     57.33000000    69.17000000    13.28000000
   H     59.36000000    69.62000000    11.39000000
   H     58.57000000    71.03000000    13.90000000
   H     58.02000000    71.33000000    12.27000000
   H     59.95000000    71.86000000    10.48000000
   H     60.29000000    72.57000000    14.75000000
   H     61.99000000    73.27000000    10.21000000
   H     62.09000000    74.00000000    14.37000000
   H     63.00000000    74.51000000    12.09000000
   N     60.57000000    68.66000000    14.34000000
   C     61.76000000    68.00000000    14.82000000
   C     62.30000000    66.84000000    13.99000000
   O     63.47000000    66.51000000    14.10000000
   C     61.43000000    67.47000000    16.21000000
   C     60.39000000    68.49000000    16.64000000
   C     59.59000000    68.84000000    15.39000000
   H     62.49000000    68.79000000    15.03000000
   H     61.01000000    66.47000000    16.07000000
   H     62.24000000    67.48000000    16.95000000
   H     59.78000000    68.09000000    17.45000000
   H     60.97000000    69.37000000    16.90000000
   H     58.70000000    68.23000000    15.20000000
   H     59.30000000    69.89000000    15.29000000
   N     61.41000000    66.13000000    13.30000000
   C     61.74000000    64.99000000    12.47000000
   C     62.20000000    65.51000000    11.11000000
   O     63.07000000    64.87000000    10.53000000
   C     60.54000000    64.05000000    12.41000000
   C     60.18000000    63.53000000    13.80000000
   C     58.85000000    62.80000000    13.91000000
   O     57.90000000    63.05000000    13.14000000
   O     58.59000000    61.92000000    14.76000000
   H     60.47000000    66.49000000    13.24000000
   H     62.56000000    64.40000000    12.89000000
   H     60.81000000    63.22000000    11.75000000
   H     59.70000000    64.50000000    11.88000000
   H     60.10000000    64.28000000    14.58000000
   H     60.98000000    62.88000000    14.16000000
   N     61.69000000    66.62000000    10.57000000
   C     62.10000000    67.26000000     9.34000000
   H     63.12600000    66.97600000     9.10800000
   H     61.44400000    66.94400000     8.52900000
   H     62.04100000    68.34200000     9.45600000
   H     61.07000000    67.18000000    11.14000000
  Ca     55.91000000    61.70000000    14.08000000
   O     53.21000000    61.66000000    15.55000000
   H     52.57000000    61.05000000    15.18000000
   H     53.22000000    61.45000000    16.49000000
   O     53.93000000    63.26000000    13.16000000
   H     52.99000000    63.16000000    13.07000000
   H     54.05000000    64.12000000    13.55000000
   O     54.24000000    60.00000000    13.36000000
   H     54.70000000    59.20000000    13.11000000
   H     53.40000000    59.95000000    12.90000000

Ca 1.70



