%chk=loop2.cluster23.chk
%nprocshared=48
%mem=10GB
%nosave
#b3lyp/svp scf=(tight,noincore) Test 
#IOP(5/87=12) Density=Current Pop=(MK,readradii) iop(6/33=2) iop(6/42=6)

loop2.cluster23 

   -2  1 
   C     54.83000000    47.20000000    13.04000000
   C     55.65000000    48.07000000    12.10000000
   O     55.63000000    47.90000000    10.88000000
   H     53.85300000    47.00700000    12.59600000
   H     55.34700000    46.25400000    13.20400000
   H     54.70100000    47.71400000    13.99200000
   N     56.50000000    48.98000000    12.58000000
   C     57.43000000    49.83000000    11.86000000
   C     56.78000000    50.93000000    11.02000000
   O     55.70000000    51.35000000    11.44000000
   C     58.44000000    50.35000000    12.87000000
   C     59.58000000    51.13000000    12.22000000
   O     60.17000000    52.03000000    12.84000000
   O     59.87000000    50.83000000    11.04000000
   H     56.60000000    49.10000000    13.58000000
   H     57.93000000    49.22000000    11.11000000
   H     58.90000000    49.54000000    13.45000000
   H     57.90000000    51.08000000    13.47000000
   N     57.31000000    51.38000000     9.89000000
   C     56.66000000    52.34000000     9.01000000
   C     55.37000000    51.88000000     8.34000000
   O     55.12000000    50.69000000     8.19000000
   C     57.73000000    52.76000000     8.01000000
   H     58.25000000    51.10000000     9.64000000
   H     56.42000000    53.26000000     9.55000000
   H     57.27000000    53.55000000     7.41000000
   H     58.67000000    53.09000000     8.44000000
   H     58.02000000    51.95000000     7.34000000
   N     54.39000000    52.72000000     8.00000000
   C     54.21000000    54.16000000     8.14000000
   C     54.11000000    54.63000000     9.59000000
   O     53.56000000    53.93000000    10.43000000
   C     53.01000000    54.48000000     7.25000000
   C     51.73000000    53.79000000     7.68000000
   O     51.58000000    52.55000000     7.58000000
   O     50.84000000    54.50000000     8.19000000
   H     53.59000000    52.24000000     7.61000000
   H     55.09000000    54.65000000     7.75000000
   H     53.23000000    54.37000000     6.19000000
   H     52.88000000    55.55000000     7.45000000
   N     54.55000000    55.84000000     9.92000000
   C     54.51000000    56.41000000    11.25000000
   C     53.59000000    57.63000000    11.36000000
   O     54.19000000    58.70000000    11.28000000
   H     55.07000000    56.39000000     9.25000000
   H     55.55000000    56.70000000    11.37000000
   H     54.28000000    55.67000000    12.02000000
   N     52.29000000    57.58000000    11.64000000
   C     51.39000000    56.44000000    11.66000000
   C     51.43000000    55.69000000    12.98000000
   O     51.15000000    56.22000000    14.05000000
   C     49.96000000    56.73000000    11.21000000
   C     49.95000000    57.64000000     9.99000000
   N     50.31000000    57.15000000     8.81000000
   O     49.62000000    58.83000000    10.02000000
   H     51.87000000    58.49000000    11.74000000
   H     51.69000000    55.75000000    10.87000000
   H     49.52000000    57.34000000    12.00000000
   H     49.38000000    55.82000000    11.03000000
   H     50.62000000    56.19000000     8.75000000
   H     50.38000000    57.73000000     7.99000000
   N     51.74000000    54.40000000    12.87000000
   C     51.62000000    53.49000000    13.99000000
   C     50.20000000    52.97000000    14.19000000
   O     49.74000000    52.93000000    15.33000000
   H     52.05000000    54.14000000    11.94000000
   H     51.84000000    54.12000000    14.86000000
   H     52.24000000    52.60000000    13.89000000
   N     49.54000000    52.51000000    13.12000000
   C     48.15000000    52.12000000    13.04000000
   C     47.98000000    50.86000000    12.20000000
   O     48.85000000    50.69000000    11.35000000
   C     47.24000000    53.27000000    12.62000000
   C     47.19000000    54.43000000    13.61000000
   O     47.62000000    53.83000000    11.38000000
   H     50.08000000    52.39000000    12.28000000
   H     47.81000000    51.87000000    14.04000000
   H     46.20000000    52.94000000    12.54000000
   H     46.93000000    54.44000000    11.10000000
   H     46.54000000    55.22000000    13.22000000
   H     46.80000000    54.07000000    14.56000000
   H     48.15000000    54.92000000    13.76000000
   N     47.01000000    49.97000000    12.42000000
   C     46.90000000    48.69000000    11.75000000
   C     46.11000000    48.90000000    10.46000000
   O     44.94000000    49.28000000    10.50000000
   C     46.38000000    47.56000000    12.63000000
   C     47.43000000    47.07000000    13.62000000
   C     45.14000000    47.92000000    13.45000000
   C     47.05000000    45.72000000    14.24000000
   H     46.32000000    50.24000000    13.11000000
   H     47.89000000    48.35000000    11.44000000
   H     46.07000000    46.74000000    12.00000000
   H     47.59000000    47.83000000    14.39000000
   H     48.42000000    47.06000000    13.15000000
   H     44.72000000    47.02000000    13.88000000
   H     45.31000000    48.57000000    14.31000000
   H     44.42000000    48.40000000    12.78000000
   H     46.62000000    45.05000000    13.50000000
   H     47.93000000    45.22000000    14.63000000
   H     46.40000000    45.92000000    15.10000000
   N     46.74000000    48.68000000     9.31000000
   C     46.09000000    48.42000000     8.04000000
   C     46.49000000    47.06000000     7.48000000
   O     47.59000000    46.62000000     7.80000000
   C     46.38000000    49.44000000     6.94000000
   C     47.86000000    49.78000000     6.82000000
   O     48.37000000    50.66000000     7.54000000
   O     48.57000000    49.30000000     5.90000000
   H     47.67000000    48.32000000     9.46000000
   H     45.02000000    48.30000000     8.19000000
   H     45.91000000    50.38000000     7.21000000
   H     45.95000000    49.13000000     5.98000000
   N     45.63000000    46.32000000     6.77000000
   C     45.99000000    45.03000000     6.23000000
   C     46.12000000    43.95000000     7.30000000
   O     45.33000000    43.87000000     8.24000000
   C     44.93000000    44.65000000     5.19000000
   C     45.07000000    43.41000000     4.35000000
   C     44.53000000    42.20000000     4.80000000
   C     45.57000000    43.45000000     3.04000000
   C     44.67000000    41.04000000     4.02000000
   C     45.67000000    42.32000000     2.22000000
   C     45.22000000    41.10000000     2.73000000
   H     44.69000000    46.61000000     6.53000000
   H     46.96000000    45.11000000     5.73000000
   H     44.84000000    45.48000000     4.49000000
   H     43.97000000    44.60000000     5.71000000
   H     44.12000000    42.15000000     5.79000000
   H     45.86000000    44.36000000     2.54000000
   H     44.44000000    40.07000000     4.42000000
   H     46.01000000    42.35000000     1.20000000
   H     45.28000000    40.20000000     2.14000000
   N     47.14000000    43.11000000     7.20000000
   C     47.38000000    41.95000000     8.04000000
   C     48.42000000    42.22000000     9.12000000
   O     49.10000000    41.36000000     9.67000000
   C     47.81000000    40.79000000     7.15000000
   C     48.66000000    41.56000000     6.15000000
   C     48.04000000    42.95000000     6.07000000
   H     46.44000000    41.64000000     8.50000000
   H     48.28000000    39.99000000     7.73000000
   H     46.91000000    40.41000000     6.66000000
   H     49.65000000    41.85000000     6.52000000
   H     48.65000000    41.08000000     5.17000000
   H     48.89000000    43.63000000     6.09000000
   H     47.54000000    43.08000000     5.11000000
   N     48.56000000    43.48000000     9.53000000
   C     49.43000000    43.90000000    10.61000000
   C     49.08000000    43.38000000    11.99000000
   O     49.91000000    43.40000000    12.90000000
   C     49.49000000    45.43000000    10.62000000
   C     50.63000000    46.00000000     9.79000000
   C     50.61000000    47.52000000     9.74000000
   O     49.54000000    48.17000000     9.64000000
   O     51.70000000    48.12000000     9.63000000
   H     48.08000000    44.24000000     9.07000000
   H     50.41000000    43.56000000    10.26000000
   H     49.61000000    45.71000000    11.67000000
   H     48.56000000    45.88000000    10.28000000
   H     50.60000000    45.60000000     8.78000000
   H     51.55000000    45.62000000    10.23000000
   N     47.85000000    42.94000000    12.27000000
   C     47.50000000    42.44000000    13.58000000
   H     46.46900000    42.08700000    13.57000000
   H     48.16300000    41.61600000    13.84400000
   H     47.60300000    43.23900000    14.31400000
   H     47.12000000    43.18000000    11.60000000
  Ca     50.61000000    50.48000000     8.78000000
   O     52.85000000    50.83000000    10.40000000
   H     53.25000000    49.97000000    10.33000000
   H     53.57000000    51.42000000    10.62000000
   O     50.08000000    53.00000000    10.27000000
   H     50.15000000    53.55000000     9.49000000
   H     49.20000000    53.15000000    10.59000000
   O     52.63000000    49.68000000     7.21000000
   H     53.47000000    50.03000000     7.51000000
   H     52.84000000    49.21000000     6.40000000

Ca 1.70



