%chk=loop4.cluster148.chk
%nprocshared=48
%mem=10GB
%nosave
#b3lyp/svp scf=(tight,noincore) Test 
#IOP(5/87=12) Density=Current Pop=(MK,readradii) iop(6/33=2) iop(6/42=6)

loop4.cluster148 

   -3  1 
   C    106.27000000    26.31000000    60.69000000
   C    107.60000000    26.97000000    60.32000000
   O    107.73000000    28.00000000    59.67000000
   H    105.50200000    26.62000000    59.98200000
   H    106.37900000    25.22600000    60.65500000
   H    105.98000000    26.61400000    61.69600000
   N    108.68000000    26.32000000    60.76000000
   C    110.02000000    26.87000000    60.80000000
   C    110.27000000    28.01000000    61.77000000
   O    110.98000000    28.98000000    61.51000000
   C    110.54000000    27.11000000    59.38000000
   C    110.38000000    25.95000000    58.41000000
   O    109.41000000    25.94000000    57.61000000
   O    111.09000000    24.93000000    58.49000000
   H    108.43000000    25.44000000    61.19000000
   H    110.69000000    26.11000000    61.19000000
   H    111.60000000    27.32000000    59.53000000
   H    110.11000000    28.02000000    58.96000000
   N    109.71000000    27.88000000    62.98000000
   C    109.61000000    28.90000000    64.00000000
   C    110.04000000    28.34000000    65.36000000
   O    109.47000000    27.32000000    65.72000000
   C    108.23000000    29.55000000    64.01000000
   C    107.81000000    30.08000000    62.65000000
   C    108.12000000    30.67000000    65.04000000
   C    106.45000000    30.76000000    62.44000000
   H    108.91000000    27.26000000    62.93000000
   H    110.37000000    29.64000000    63.76000000
   H    107.66000000    28.62000000    64.11000000
   H    107.85000000    29.28000000    61.91000000
   H    108.58000000    30.79000000    62.34000000
   H    108.86000000    31.41000000    64.76000000
   H    107.17000000    31.21000000    65.05000000
   H    108.27000000    30.41000000    66.09000000
   H    106.28000000    31.62000000    63.08000000
   H    106.22000000    31.07000000    61.43000000
   H    105.62000000    30.06000000    62.54000000
   N    110.90000000    29.05000000    66.09000000
   C    111.92000000    29.96000000    65.60000000
   C    112.87000000    29.39000000    64.56000000
   O    112.99000000    29.99000000    63.50000000
   C    112.77000000    30.44000000    66.78000000
   C    112.04000000    31.05000000    67.97000000
   O    111.28000000    30.27000000    68.58000000
   O    112.05000000    32.29000000    68.15000000
   H    110.97000000    28.66000000    67.02000000
   H    111.49000000    30.86000000    65.16000000
   H    113.43000000    31.21000000    66.38000000
   H    113.41000000    29.64000000    67.14000000
   N    113.30000000    28.14000000    64.73000000
   C    113.92000000    27.31000000    63.72000000
   C    115.38000000    27.69000000    63.52000000
   O    116.20000000    27.53000000    64.42000000
   H    113.19000000    27.70000000    65.64000000
   H    113.41000000    27.49000000    62.77000000
   H    113.82000000    26.25000000    63.93000000
   N    115.70000000    28.12000000    62.29000000
   C    117.03000000    28.48000000    61.84000000
   C    117.22000000    29.80000000    61.12000000
   O    118.34000000    30.23000000    60.85000000
   C    117.58000000    27.36000000    60.96000000
   C    116.69000000    26.90000000    59.81000000
   O    116.80000000    25.72000000    59.42000000
   O    115.85000000    27.68000000    59.32000000
   H    114.98000000    28.13000000    61.59000000
   H    117.79000000    28.46000000    62.63000000
   H    117.84000000    26.56000000    61.65000000
   H    118.51000000    27.66000000    60.48000000
   N    116.15000000    30.42000000    60.61000000
   C    116.09000000    31.49000000    59.63000000
   C    116.17000000    31.23000000    58.14000000
   O    116.22000000    32.17000000    57.34000000
   H    115.36000000    29.80000000    60.72000000
   H    116.91000000    32.18000000    59.86000000
   H    115.21000000    32.09000000    59.84000000
   N    116.22000000    29.96000000    57.72000000
   C    116.50000000    29.36000000    56.43000000
   C    115.70000000    30.04000000    55.32000000
   O    116.27000000    30.67000000    54.44000000
   C    117.99000000    29.29000000    56.12000000
   C    118.74000000    28.40000000    57.11000000
   C    120.09000000    28.04000000    56.50000000
   N    120.60000000    26.87000000    56.89000000
   O    120.64000000    28.82000000    55.72000000
   H    116.03000000    29.29000000    58.45000000
   H    116.07000000    28.36000000    56.50000000
   H    118.42000000    30.29000000    56.11000000
   H    118.17000000    28.91000000    55.12000000
   H    118.10000000    27.56000000    57.36000000
   H    118.96000000    28.97000000    58.02000000
   H    120.17000000    26.28000000    57.59000000
   H    121.53000000    26.69000000    56.54000000
   N    114.37000000    29.89000000    55.40000000
   C    113.43000000    30.27000000    54.37000000
   C    113.41000000    29.19000000    53.29000000
   O    114.07000000    28.16000000    53.38000000
   C    112.03000000    30.50000000    54.93000000
   C    111.28000000    29.18000000    55.10000000
   C    111.92000000    31.30000000    56.22000000
   H    114.06000000    29.38000000    56.21000000
   H    113.76000000    31.21000000    53.93000000
   H    111.47000000    31.05000000    54.18000000
   H    110.29000000    29.45000000    55.48000000
   H    111.23000000    28.61000000    54.17000000
   H    111.66000000    28.46000000    55.82000000
   H    110.85000000    31.38000000    56.39000000
   H    112.39000000    30.83000000    57.09000000
   H    112.33000000    32.29000000    56.01000000
   N    112.72000000    29.49000000    52.19000000
   C    112.33000000    28.57000000    51.14000000
   C    110.83000000    28.32000000    51.24000000
   O    110.18000000    29.22000000    51.76000000
   C    112.77000000    29.22000000    49.83000000
   C    112.80000000    28.22000000    48.69000000
   N    112.82000000    28.59000000    47.40000000
   O    112.59000000    27.04000000    48.94000000
   H    112.12000000    30.30000000    52.21000000
   H    112.81000000    27.61000000    51.32000000
   H    113.79000000    29.60000000    49.90000000
   H    112.03000000    29.98000000    49.57000000
   H    113.01000000    29.51000000    47.05000000
   H    112.74000000    27.83000000    46.75000000
   N    110.36000000    27.28000000    50.55000000
   C    109.01000000    26.78000000    50.72000000
   C    109.07000000    25.27000000    50.51000000
   O    109.70000000    24.77000000    49.58000000
   C    108.05000000    27.47000000    49.75000000
   C    108.37000000    27.34000000    48.28000000
   C    108.08000000    26.18000000    47.55000000
   C    109.09000000    28.34000000    47.61000000
   C    108.44000000    25.95000000    46.22000000
   C    109.42000000    28.18000000    46.26000000
   C    109.13000000    26.99000000    45.57000000
   O    109.47000000    26.79000000    44.26000000
   H    110.98000000    26.69000000    50.01000000
   H    108.77000000    26.99000000    51.76000000
   H    107.88000000    28.51000000    50.03000000
   H    107.17000000    26.87000000    50.01000000
   H    107.53000000    25.39000000    48.05000000
   H    109.44000000    29.17000000    48.20000000
   H    108.14000000    25.08000000    45.66000000
   H    109.97000000    28.91000000    45.67000000
   H    110.04000000    27.54000000    44.08000000
   N    108.62000000    24.53000000    51.52000000
   C    108.53000000    23.08000000    51.48000000
   C    107.35000000    22.51000000    50.72000000
   O    107.49000000    21.97000000    49.62000000
   C    108.79000000    22.55000000    52.88000000
   C    110.22000000    22.69000000    53.40000000
   C    110.20000000    22.76000000    54.92000000
   O    110.55000000    23.78000000    55.57000000
   O    109.64000000    21.80000000    55.47000000
   H    108.23000000    25.03000000    52.31000000
   H    109.41000000    22.75000000    50.92000000
   H    108.44000000    21.52000000    52.79000000
   H    108.14000000    23.21000000    53.45000000
   H    110.69000000    23.58000000    52.98000000
   H    110.83000000    21.87000000    53.04000000
   N    106.11000000    22.53000000    51.21000000
   C    105.55000000    23.23000000    52.36000000
   C    104.13000000    23.71000000    52.11000000
   O    103.54000000    23.43000000    51.07000000
   C    105.53000000    22.40000000    53.64000000
   C    104.76000000    21.09000000    53.58000000
   C    105.30000000    20.02000000    52.64000000
   O    106.29000000    19.38000000    53.05000000
   O    104.74000000    19.76000000    51.56000000
   H    105.41000000    22.19000000    50.57000000
   H    106.22000000    24.05000000    52.58000000
   H    105.16000000    23.10000000    54.39000000
   H    106.53000000    22.06000000    53.89000000
   H    103.75000000    21.35000000    53.26000000
   H    104.81000000    20.64000000    54.57000000
   N    103.62000000    24.49000000    53.06000000
   C    102.26000000    24.99000000    53.16000000
   H    101.60200000    24.18700000    53.49100000
   H    102.22500000    25.80800000    53.88000000
   H    101.93200000    25.34900000    52.18500000
   H    104.29000000    24.85000000    53.73000000
  Ca    109.29300000    23.14000000    57.81000000
   O    107.33300000    24.22000000    56.16000000
   H    106.45300000    24.59000000    56.12000000
   H    107.91300000    24.94000000    55.91000000
   O    110.91300000    21.32000000    58.83000000
   H    110.44300000    20.67000000    59.36000000
   H    111.84300000    21.12000000    58.99000000

Ca 1.70



