%chk=loop2.cluster29.chk
%nprocshared=48
%mem=10GB
%nosave
#b3lyp/svp scf=(tight,noincore) Test 
#IOP(5/87=12) Density=Current Pop=(MK,readradii) iop(6/33=2) iop(6/42=6)

loop2.cluster29 

   -2  1 
   C     77.59000000    51.97000000    58.57000000
   C     77.21000000    52.42000000    57.16000000
   O     76.54000000    51.66000000    56.46000000
   H     78.43200000    52.56400000    58.92600000
   H     76.74000000    52.10900000    59.23800000
   H     77.87100000    50.91700000    58.55300000
   N     77.66000000    53.61000000    56.76000000
   C     77.74000000    54.14000000    55.41000000
   C     76.37000000    54.38000000    54.80000000
   O     75.55000000    55.00000000    55.47000000
   C     78.57000000    55.42000000    55.44000000
   C     78.70000000    56.15000000    54.11000000
   O     78.00000000    57.18000000    54.00000000
   O     79.55000000    55.79000000    53.26000000
   H     78.00000000    54.13000000    57.55000000
   H     78.27000000    53.39000000    54.82000000
   H     79.54000000    55.02000000    55.73000000
   H     78.26000000    56.06000000    56.27000000
   N     76.05000000    53.72000000    53.68000000
   C     74.80000000    53.97000000    53.00000000
   C     73.91000000    52.74000000    53.11000000
   O     74.41000000    51.62000000    53.08000000
   C     75.11000000    54.41000000    51.57000000
   H     76.66000000    53.07000000    53.21000000
   H     74.30000000    54.83000000    53.43000000
   H     75.65000000    55.35000000    51.58000000
   H     75.53000000    53.60000000    50.98000000
   H     74.16000000    54.55000000    51.04000000
   N     72.59000000    52.89000000    53.20000000
   C     71.77000000    54.08000000    53.18000000
   C     71.81000000    54.94000000    54.44000000
   O     72.15000000    54.46000000    55.53000000
   C     70.35000000    53.57000000    52.95000000
   C     69.88000000    52.73000000    54.14000000
   O     70.16000000    51.52000000    54.23000000
   O     69.02000000    53.24000000    54.89000000
   H     72.15000000    52.00000000    53.41000000
   H     72.08000000    54.72000000    52.35000000
   H     70.42000000    53.00000000    52.03000000
   H     69.70000000    54.43000000    52.84000000
   N     71.39000000    56.20000000    54.32000000
   C     71.60000000    57.06000000    55.47000000
   C     71.96000000    58.47000000    55.02000000
   O     72.04000000    58.76000000    53.83000000
   H     71.28000000    56.54000000    53.38000000
   H     72.39000000    56.61000000    56.08000000
   H     70.74000000    57.05000000    56.13000000
   N     72.23000000    59.39000000    55.95000000
   C     71.90000000    59.27000000    57.36000000
   C     73.10000000    58.93000000    58.23000000
   O     74.22000000    59.33000000    57.96000000
   C     70.98000000    60.40000000    57.81000000
   C     70.56000000    60.28000000    59.27000000
   N     70.21000000    59.11000000    59.82000000
   O     70.54000000    61.26000000    60.02000000
   H     72.47000000    60.33000000    55.69000000
   H     71.22000000    58.41000000    57.45000000
   H     70.14000000    60.45000000    57.12000000
   H     71.58000000    61.30000000    57.76000000
   H     70.07000000    58.33000000    59.20000000
   H     69.68000000    59.07000000    60.68000000
   N     72.92000000    58.14000000    59.30000000
   C     73.96000000    57.83000000    60.27000000
   C     73.62000000    56.66000000    61.18000000
   O     74.24000000    56.59000000    62.24000000
   H     72.00000000    57.77000000    59.44000000
   H     74.22000000    58.65000000    60.93000000
   H     74.85000000    57.52000000    59.72000000
   N     72.63000000    55.82000000    60.85000000
   C     72.09000000    54.82000000    61.74000000
   C     71.77000000    53.49000000    61.08000000
   O     71.97000000    53.26000000    59.89000000
   C     70.87000000    55.39000000    62.47000000
   C     71.00000000    56.46000000    63.55000000
   O     69.95000000    55.81000000    61.49000000
   H     72.13000000    55.94000000    59.98000000
   H     72.91000000    54.76000000    62.45000000
   H     70.41000000    54.54000000    62.99000000
   H     69.07000000    55.52000000    61.76000000
   H     71.76000000    56.13000000    64.25000000
   H     71.37000000    57.32000000    63.00000000
   H     70.00000000    56.64000000    63.96000000
   N     71.51000000    52.51000000    61.95000000
   C     71.20000000    51.15000000    61.54000000
   C     69.77000000    50.88000000    61.99000000
   O     69.09000000    51.52000000    62.79000000
   C     72.22000000    50.16000000    62.09000000
   C     73.59000000    50.27000000    61.44000000
   C     72.46000000    50.20000000    63.59000000
   C     73.66000000    49.92000000    59.96000000
   H     71.48000000    52.76000000    62.93000000
   H     71.22000000    51.06000000    60.45000000
   H     71.73000000    49.21000000    61.86000000
   H     74.38000000    49.68000000    61.91000000
   H     73.89000000    51.29000000    61.71000000
   H     73.17000000    49.40000000    63.83000000
   H     73.01000000    51.05000000    64.01000000
   H     71.52000000    50.09000000    64.12000000
   H     74.69000000    49.88000000    59.61000000
   H     73.13000000    48.98000000    59.81000000
   H     73.14000000    50.61000000    59.30000000
   N     69.26000000    49.88000000    61.26000000
   C     67.88000000    49.45000000    61.37000000
   C     67.61000000    47.96000000    61.22000000
   O     68.34000000    47.30000000    60.49000000
   C     66.93000000    50.24000000    60.46000000
   C     67.50000000    50.44000000    59.07000000
   O     68.24000000    51.44000000    58.90000000
   O     67.42000000    49.55000000    58.20000000
   H     69.86000000    49.56000000    60.52000000
   H     67.54000000    49.73000000    62.37000000
   H     66.66000000    51.23000000    60.82000000
   H     65.93000000    49.81000000    60.48000000
   N     66.68000000    47.30000000    61.91000000
   C     66.39000000    45.91000000    61.62000000
   C     67.60000000    45.02000000    61.86000000
   O     68.23000000    45.04000000    62.92000000
   C     65.28000000    45.38000000    62.52000000
   C     64.87000000    43.95000000    62.22000000
   C     65.37000000    42.98000000    63.10000000
   C     63.90000000    43.54000000    61.30000000
   C     64.95000000    41.65000000    63.04000000
   C     63.41000000    42.23000000    61.24000000
   C     64.00000000    41.27000000    62.08000000
   H     66.05000000    47.82000000    62.51000000
   H     66.12000000    45.99000000    60.56000000
   H     64.39000000    46.02000000    62.51000000
   H     65.66000000    45.41000000    63.54000000
   H     66.11000000    43.24000000    63.84000000
   H     63.40000000    44.30000000    60.72000000
   H     65.29000000    40.90000000    63.74000000
   H     62.62000000    41.86000000    60.61000000
   H     63.75000000    40.22000000    62.10000000
   N     67.90000000    44.10000000    60.95000000
   C     69.00000000    43.17000000    61.11000000
   C     70.35000000    43.80000000    60.80000000
   O     71.35000000    43.09000000    60.75000000
   C     68.65000000    42.00000000    60.19000000
   C     68.13000000    42.73000000    58.96000000
   C     67.35000000    43.86000000    59.64000000
   H     68.96000000    42.76000000    62.12000000
   H     69.48000000    41.36000000    59.90000000
   H     67.78000000    41.43000000    60.54000000
   H     68.97000000    43.01000000    58.33000000
   H     67.45000000    42.11000000    58.36000000
   H     67.27000000    44.79000000    59.07000000
   H     66.32000000    43.52000000    59.79000000
   N     70.47000000    45.09000000    60.49000000
   C     71.61000000    45.63000000    59.79000000
   C     72.89000000    45.74000000    60.60000000
   O     73.94000000    46.09000000    60.05000000
   C     71.26000000    46.93000000    59.06000000
   C     70.33000000    46.76000000    57.86000000
   C     70.09000000    48.01000000    57.04000000
   O     70.47000000    49.16000000    57.36000000
   O     69.42000000    47.93000000    55.98000000
   H     69.60000000    45.60000000    60.52000000
   H     72.02000000    44.91000000    59.08000000
   H     72.17000000    47.39000000    58.67000000
   H     70.92000000    47.64000000    59.80000000
   H     69.44000000    46.27000000    58.26000000
   H     70.88000000    46.07000000    57.23000000
   N     72.86000000    45.56000000    61.92000000
   C     73.97000000    45.85000000    62.81000000
   H     74.78600000    46.29400000    62.24000000
   H     73.64500000    46.54800000    63.58100000
   H     74.31300000    44.92700000    63.27600000
   H     71.96000000    45.30000000    62.29000000
  Ca     68.83000000    50.92000000    56.37000000
   O     70.81000000    52.19000000    57.42000000
   H     70.62000000    53.08000000    57.73000000
   H     71.62000000    51.95000000    57.85000000
   O     67.17000000    49.85000000    54.51000000
   H     67.27000000    48.97000000    54.14000000
   H     66.85000000    50.39000000    53.79000000

Ca 1.70



