%chk=loop2.cluster22.chk
%nprocshared=48
%mem=10GB
%nosave
#b3lyp/svp scf=(tight,noincore) Test 
#IOP(5/87=12) Density=Current Pop=(MK,readradii) iop(6/33=2) iop(6/42=6)

loop2.cluster22 

   -2  1 
   C     47.53000000    43.89000000     3.43000000
   C     46.30000000    44.24000000     2.60000000
   O     45.79000000    45.35000000     2.45000000
   H     48.31800000    44.61700000     3.23500000
   H     47.27200000    43.91000000     4.48900000
   H     47.88000000    42.89400000     3.15900000
   N     45.60000000    43.22000000     2.10000000
   C     45.75000000    41.78000000     2.19000000
   C     45.40000000    41.21000000     3.56000000
   O     44.56000000    41.76000000     4.27000000
   C     44.79000000    41.20000000     1.16000000
   C     43.36000000    41.68000000     0.94000000
   O     42.87000000    41.50000000    -0.19000000
   O     42.85000000    42.35000000     1.86000000
   H     44.79000000    43.53000000     1.58000000
   H     46.75000000    41.43000000     1.93000000
   H     44.67000000    40.14000000     1.43000000
   H     45.26000000    41.13000000     0.19000000
   N     46.10000000    40.13000000     3.92000000
   C     45.81000000    39.09000000     4.89000000
   C     44.59000000    38.26000000     4.53000000
   O     44.80000000    37.50000000     3.59000000
   C     45.94000000    39.64000000     6.31000000
   H     46.71000000    39.80000000     3.19000000
   H     46.62000000    38.37000000     4.84000000
   H     45.07000000    40.19000000     6.67000000
   H     46.22000000    38.92000000     7.07000000
   H     46.76000000    40.36000000     6.28000000
   N     43.40000000    38.31000000     5.13000000
   C     42.23000000    37.77000000     4.45000000
   C     42.04000000    38.49000000     3.12000000
   O     42.24000000    39.70000000     3.06000000
   C     41.00000000    37.77000000     5.34000000
   C     40.65000000    39.15000000     5.88000000
   O     41.45000000    40.10000000     5.72000000
   O     39.59000000    39.26000000     6.53000000
   H     43.17000000    38.93000000     5.89000000
   H     42.37000000    36.71000000     4.22000000
   H     41.19000000    37.09000000     6.18000000
   H     40.18000000    37.31000000     4.79000000
   N     41.72000000    37.83000000     2.01000000
   C     41.81000000    38.25000000     0.63000000
   C     40.58000000    39.00000000     0.13000000
   O     39.98000000    38.55000000    -0.85000000
   H     41.37000000    36.88000000     2.11000000
   H     41.86000000    37.33000000     0.05000000
   H     42.74000000    38.80000000     0.46000000
   N     40.15000000    40.08000000     0.79000000
   C     38.89000000    40.79000000     0.72000000
   C     39.06000000    42.29000000     0.52000000
   O     38.07000000    43.00000000     0.34000000
   C     38.04000000    40.46000000     1.94000000
   C     38.58000000    40.98000000     3.26000000
   N     37.75000000    41.10000000     4.30000000
   O     39.76000000    41.26000000     3.42000000
   H     40.86000000    40.42000000     1.43000000
   H     38.36000000    40.43000000    -0.16000000
   H     37.98000000    39.38000000     2.06000000
   H     37.02000000    40.71000000     1.65000000
   H     36.77000000    40.86000000     4.21000000
   H     38.11000000    41.57000000     5.12000000
   N     40.30000000    42.78000000     0.50000000
   C     40.58000000    44.20000000     0.55000000
   C     40.65000000    44.81000000     1.95000000
   O     40.65000000    44.11000000     2.96000000
   H     41.11000000    42.18000000     0.48000000
   H     39.84000000    44.65000000    -0.11000000
   H     41.59000000    44.40000000     0.19000000
   N     40.53000000    46.13000000     2.10000000
   C     40.39000000    47.20000000     1.14000000
   C     41.13000000    48.52000000     1.33000000
   O     41.11000000    49.45000000     0.53000000
   C     38.89000000    47.49000000     1.23000000
   C     38.47000000    47.99000000     2.61000000
   O     38.40000000    48.35000000     0.22000000
   H     40.48000000    46.41000000     3.07000000
   H     40.67000000    46.84000000     0.15000000
   H     38.32000000    46.59000000     1.02000000
   H     39.00000000    48.90000000    -0.28000000
   H     37.50000000    48.48000000     2.52000000
   H     38.23000000    47.17000000     3.29000000
   H     39.16000000    48.67000000     3.10000000
   N     41.96000000    48.50000000     2.38000000
   C     42.49000000    49.74000000     2.90000000
   C     41.49000000    50.88000000     3.11000000
   O     41.36000000    51.75000000     2.26000000
   C     43.74000000    50.10000000     2.10000000
   C     44.71000000    48.93000000     2.07000000
   C     44.46000000    51.24000000     2.82000000
   C     45.88000000    49.07000000     1.09000000
   H     42.14000000    47.60000000     2.80000000
   H     42.94000000    49.45000000     3.85000000
   H     43.52000000    50.42000000     1.09000000
   H     44.23000000    48.01000000     1.72000000
   H     45.18000000    48.79000000     3.05000000
   H     45.44000000    51.53000000     2.45000000
   H     43.89000000    52.11000000     2.53000000
   H     44.40000000    51.21000000     3.91000000
   H     45.52000000    49.41000000     0.12000000
   H     46.61000000    49.80000000     1.44000000
   H     46.39000000    48.11000000     1.05000000
   N     40.85000000    51.01000000     4.27000000
   C     40.74000000    50.17000000     5.44000000
   C     41.80000000    50.38000000     6.51000000
   O     42.88000000    49.79000000     6.49000000
   C     39.33000000    50.21000000     6.02000000
   C     38.56000000    51.52000000     5.99000000
   O     37.31000000    51.54000000     6.11000000
   O     39.13000000    52.63000000     5.86000000
   H     40.38000000    51.91000000     4.32000000
   H     40.83000000    49.10000000     5.24000000
   H     39.40000000    49.85000000     7.05000000
   H     38.75000000    49.43000000     5.52000000
   N     41.57000000    51.30000000     7.44000000
   C     42.27000000    51.54000000     8.69000000
   C     41.34000000    51.24000000     9.86000000
   O     40.15000000    51.55000000     9.83000000
   C     42.93000000    52.91000000     8.68000000
   C     41.88000000    53.96000000     8.99000000
   C     41.35000000    54.72000000     7.94000000
   C     41.65000000    54.29000000    10.33000000
   C     40.49000000    55.77000000     8.27000000
   C     40.82000000    55.38000000    10.63000000
   C     40.14000000    56.04000000     9.60000000
   H     40.87000000    52.01000000     7.29000000
   H     43.07000000    50.80000000     8.69000000
   H     43.28000000    53.22000000     7.70000000
   H     43.67000000    52.97000000     9.47000000
   H     41.56000000    54.56000000     6.89000000
   H     42.24000000    53.82000000    11.11000000
   H     40.10000000    56.37000000     7.46000000
   H     40.67000000    55.62000000    11.67000000
   H     39.40000000    56.78000000     9.89000000
   N     41.82000000    50.61000000    10.94000000
   C     43.07000000    49.89000000    11.06000000
   C     43.07000000    48.65000000    10.18000000
   O     42.11000000    48.39000000     9.47000000
   C     43.25000000    49.57000000    12.54000000
   C     42.10000000    50.26000000    13.28000000
   C     41.07000000    50.53000000    12.18000000
   H     43.90000000    50.51000000    10.70000000
   H     43.23000000    48.50000000    12.75000000
   H     44.23000000    49.93000000    12.84000000
   H     41.65000000    49.62000000    14.04000000
   H     42.51000000    51.22000000    13.56000000
   H     40.39000000    49.68000000    12.14000000
   H     40.55000000    51.45000000    12.42000000
   N     44.17000000    47.90000000    10.08000000
   C     44.47000000    46.93000000     9.04000000
   C     45.91000000    46.54000000     8.73000000
   O     46.35000000    45.41000000     8.91000000
   C     43.60000000    45.70000000     9.29000000
   C     43.87000000    44.99000000    10.61000000
   C     43.45000000    43.52000000    10.63000000
   O     42.45000000    43.24000000     9.94000000
   O     44.07000000    42.73000000    11.38000000
   H     44.90000000    48.08000000    10.76000000
   H     44.10000000    47.44000000     8.15000000
   H     43.80000000    45.01000000     8.47000000
   H     42.54000000    45.92000000     9.20000000
   H     43.32000000    45.52000000    11.39000000
   H     44.93000000    45.06000000    10.88000000
   N     46.78000000    47.45000000     8.28000000
   C     46.69000000    48.88000000     8.10000000
   H     45.83700000    49.26300000     8.66100000
   H     47.60400000    49.35100000     8.46300000
   H     46.56000000    49.10600000     7.04200000
   H     47.69000000    47.05000000     8.11000000
  Ca     42.03000000    42.36000000     4.32000000
   O     43.45000000    44.78000000     4.02000000
   H     44.28000000    44.94000000     3.58000000
   H     43.19000000    45.63000000     4.37000000
   O     43.37000000    42.77000000     6.65000000
   H     44.27000000    42.49000000     6.52000000
   H     43.32000000    43.01000000     7.58000000
   O     39.71000000    42.25000000     6.23000000
   H     39.64000000    42.67000000     7.09000000
   H     39.80000000    41.31000000     6.43000000
   O     41.15000000    44.55000000     5.66000000
   H     41.28000000    45.29000000     6.26000000
   H     40.42000000    44.82000000     5.10000000

Ca 1.70



