%chk=loop1.cluster76.chk
%nprocshared=48
%mem=10GB
%nosave
#b3lyp/svp scf=(tight,noincore) Test 
#IOP(5/87=12) Density=Current Pop=(MK,readradii) iop(6/33=2) iop(6/42=6)

loop1.cluster76 

   0  1 
   C     89.16000000   113.39000000    73.77000000
   C     88.45000000   114.21000000    72.70000000
   O     87.46000000   113.78000000    72.12000000
   H     90.07100000   113.90400000    74.07500000
   H     88.50400000   113.27100000    74.63200000
   H     89.41400000   112.40900000    73.36800000
   N     89.00000000   115.36000000    72.30000000
   C     88.46000000   116.19000000    71.24000000
   C     88.48000000   115.70000000    69.80000000
   O     89.32000000   114.98000000    69.26000000
   C     89.15000000   117.55000000    71.27000000
   C     88.99000000   118.37000000    72.54000000
   O     89.67000000   119.42000000    72.62000000
   O     88.38000000   117.92000000    73.53000000
   H     89.86000000   115.73000000    72.68000000
   H     87.46000000   116.48000000    71.57000000
   H     88.86000000   118.12000000    70.39000000
   H     90.20000000   117.33000000    71.05000000
   N     87.49000000   116.22000000    69.08000000
   C     87.20000000   115.92000000    67.70000000
   C     88.13000000   116.56000000    66.68000000
   O     88.19000000   116.16000000    65.52000000
   C     85.71000000   116.06000000    67.39000000
   C     84.91000000   115.04000000    68.19000000
   C     83.40000000   115.25000000    68.06000000
   C     82.80000000   116.55000000    68.58000000
   N     81.33000000   116.58000000    68.53000000
   H     86.79000000   116.76000000    69.58000000
   H     87.46000000   114.89000000    67.47000000
   H     85.52000000   116.06000000    66.32000000
   H     85.33000000   117.01000000    67.78000000
   H     85.11000000   115.12000000    69.26000000
   H     85.25000000   114.09000000    67.78000000
   H     82.93000000   114.37000000    68.50000000
   H     83.14000000   115.22000000    67.00000000
   H     83.26000000   117.34000000    67.99000000
   H     83.05000000   116.66000000    69.63000000
   H     81.03000000   117.51000000    68.77000000
   H     80.89000000   116.32000000    67.65000000
   H     80.98000000   115.88000000    69.17000000
   N     88.84000000   117.60000000    67.10000000
   C     89.83000000   118.32000000    66.32000000
   C     90.84000000   118.92000000    67.29000000
   O     90.46000000   119.37000000    68.37000000
   C     89.09000000   119.30000000    65.43000000
   C     89.89000000   119.87000000    64.26000000
   O     91.11000000   119.66000000    64.10000000
   O     89.29000000   120.48000000    63.35000000
   H     88.81000000   117.93000000    68.06000000
   H     90.34000000   117.63000000    65.64000000
   H     88.86000000   120.16000000    66.06000000
   H     88.15000000   118.90000000    65.05000000
   N     92.09000000   119.00000000    66.84000000
   C     93.03000000   119.90000000    67.49000000
   C     94.38000000   120.00000000    66.80000000
   O     94.82000000   119.02000000    66.20000000
   H     92.22000000   118.72000000    65.88000000
   H     93.19000000   119.44000000    68.46000000
   H     92.49000000   120.84000000    67.62000000
   N     95.15000000   121.09000000    66.94000000
   C     96.54000000   121.19000000    66.56000000
   C     97.22000000   122.24000000    67.42000000
   O     96.62000000   123.25000000    67.77000000
   C     96.67000000   121.67000000    65.11000000
   C     95.90000000   120.86000000    64.08000000
   O     94.84000000   121.35000000    63.62000000
   O     96.29000000   119.70000000    63.86000000
   H     94.75000000   121.80000000    67.53000000
   H     97.04000000   120.24000000    66.75000000
   H     97.73000000   121.64000000    64.83000000
   H     96.35000000   122.70000000    65.04000000
   N     98.48000000   121.95000000    67.78000000
   C     99.11000000   122.35000000    69.02000000
   C     98.95000000   121.30000000    70.12000000
   O     99.62000000   121.35000000    71.15000000
   H     98.87000000   121.13000000    67.35000000
   H     98.60000000   123.26000000    69.33000000
   H    100.17000000   122.57000000    68.90000000
   N     98.17000000   120.26000000    69.85000000
   C     98.13000000   119.05000000    70.65000000
   C     97.73000000   119.35000000    72.09000000
   O     97.07000000   120.34000000    72.38000000
   C     97.19000000   118.05000000    70.00000000
   C     95.79000000   118.58000000    69.73000000
   O     97.75000000   117.62000000    68.78000000
   H     97.87000000   120.12000000    68.90000000
   H     99.11000000   118.59000000    70.55000000
   H     97.15000000   117.17000000    70.65000000
   H     97.06000000   117.22000000    68.24000000
   H     95.48000000   119.08000000    70.64000000
   H     95.95000000   119.26000000    68.89000000
   H     94.99000000   117.87000000    69.51000000
   N     98.10000000   118.41000000    72.96000000
   C     97.89000000   118.53000000    74.39000000
   C     99.12000000   118.80000000    75.24000000
   O     99.00000000   119.20000000    76.40000000
   C     97.23000000   117.27000000    74.93000000
   C     98.02000000   115.97000000    74.75000000
   C     95.79000000   117.18000000    74.42000000
   C     97.76000000   114.95000000    75.85000000
   H     98.68000000   117.67000000    72.58000000
   H     97.13000000   119.29000000    74.54000000
   H     97.14000000   117.42000000    76.01000000
   H     99.09000000   116.15000000    74.78000000
   H     97.80000000   115.48000000    73.80000000
   H     95.33000000   118.06000000    74.87000000
   H     95.80000000   117.12000000    73.34000000
   H     95.30000000   116.28000000    74.79000000
   H     97.91000000   115.23000000    76.89000000
   H     96.77000000   114.49000000    75.74000000
   H     98.40000000   114.10000000    75.62000000
   N    100.30000000   118.57000000    74.65000000
   C    101.55000000   118.40000000    75.36000000
   C    102.49000000   117.45000000    74.63000000
   O    102.32000000   117.22000000    73.43000000
   C    102.34000000   119.69000000    75.54000000
   C    101.60000000   121.03000000    75.61000000
   O    103.11000000   119.55000000    76.71000000
   H    100.31000000   118.31000000    73.67000000
   H    101.33000000   118.03000000    76.36000000
   H    103.03000000   119.79000000    74.70000000
   H    103.40000000   120.39000000    77.10000000
   H    101.05000000   121.24000000    74.69000000
   H    100.90000000   120.92000000    76.44000000
   H    102.34000000   121.80000000    75.81000000
   N    103.51000000   116.86000000    75.26000000
   C    104.43000000   115.98000000    74.57000000
   C    104.97000000   114.82000000    75.40000000
   O    105.68000000   113.98000000    74.85000000
   C    105.65000000   116.74000000    74.05000000
   C    106.27000000   117.70000000    75.05000000
   O    105.24000000   117.53000000    72.96000000
   H    103.80000000   117.10000000    76.20000000
   H    103.86000000   115.50000000    73.77000000
   H    106.39000000   116.03000000    73.69000000
   H    104.77000000   116.94000000    72.37000000
   H    107.27000000   117.98000000    74.71000000
   H    105.71000000   118.63000000    75.01000000
   H    106.30000000   117.35000000    76.08000000
   N    104.54000000   114.76000000    76.66000000
   C    104.82000000   113.66000000    77.55000000
   C    104.04000000   112.43000000    77.09000000
   O    102.81000000   112.49000000    77.04000000
   C    104.50000000   114.13000000    78.97000000
   C    104.96000000   113.06000000    79.95000000
   C    104.62000000   113.38000000    81.40000000
   C    104.93000000   112.26000000    82.39000000
   N    104.17000000   111.04000000    82.10000000
   H    103.92000000   115.49000000    76.96000000
   H    105.88000000   113.41000000    77.50000000
   H    103.43000000   114.25000000    79.09000000
   H    105.11000000   115.01000000    79.18000000
   H    106.05000000   113.00000000    80.01000000
   H    104.49000000   112.16000000    79.56000000
   H    103.53000000   113.42000000    81.42000000
   H    105.09000000   114.30000000    81.74000000
   H    104.72000000   112.64000000    83.39000000
   H    106.00000000   112.06000000    82.33000000
   H    104.40000000   110.54000000    81.25000000
   H    104.24000000   110.33000000    82.81000000
   H    103.19000000   111.24000000    81.98000000
   N    104.73000000   111.30000000    76.92000000
   C    104.19000000   110.03000000    76.48000000
   C    103.95000000   110.12000000    74.98000000
   O    104.60000000   110.87000000    74.26000000
   C    105.11000000   108.85000000    76.76000000
   C    105.39000000   108.77000000    78.26000000
   C    104.21000000   108.75000000    79.22000000
   O    103.63000000   107.67000000    79.46000000
   O    103.86000000   109.86000000    79.68000000
   H    105.73000000   111.38000000    77.01000000
   H    103.28000000   109.87000000    77.07000000
   H    106.07000000   108.92000000    76.26000000
   H    104.59000000   107.93000000    76.48000000
   H    105.98000000   109.63000000    78.60000000
   H    106.06000000   107.94000000    78.50000000
   N    103.07000000   109.38000000    74.30000000
   C    101.95000000   108.67000000    74.86000000
   H    101.09000000   108.76800000    74.19700000
   H    102.20500000   107.61600000    74.96900000
   H    101.70500000   109.08800000    75.83600000
   H    102.87000000   109.67000000    73.35000000
  Ca     92.60000000   118.04400000    60.83000000
   O     91.47000000   116.62400000    62.90000000
   H     91.78000000   116.69400000    63.81000000
   H     90.81000000   115.93400000    62.92000000
   O     93.00000000   120.82400000    60.42000000
   H     92.71000000   121.55400000    60.96000000
   H     93.21000000   121.22400000    59.57000000
   O     93.50000000   116.72400000    58.75000000
   H     94.44000000   116.89400000    58.64000000
   H     93.19000000   116.52400000    57.87000000
   O     91.53000000   119.02400000    58.44000000
   H     91.35000000   119.94400000    58.62000000
   H     90.94000000   118.79400000    57.72000000
   O     90.60000000   116.51400000    60.01000000
   H     89.70000000   116.38400000    60.30000000
   H     90.62000000   116.16400000    59.12000000
   O     93.38000000   119.23400000    63.07000000
   H     93.71000000   120.13400000    63.06000000
   H     92.57000000   119.27400000    63.56000000
   O     90.28000000   119.47400000    61.09000000
   H     89.93000000   120.16400000    60.53000000
   H     90.19000000   119.81400000    61.98000000
   O     95.15000000   119.00400000    60.14000000
   H     96.03000000   118.75400000    59.87000000
   H     95.20000000   119.94400000    60.29000000

Ca 1.70



