%chk=loop2.cluster111.chk
%nprocshared=48
%mem=10GB
%nosave
#b3lyp/svp scf=(tight,noincore) Test 
#IOP(5/87=12) Density=Current Pop=(MK,readradii) iop(6/33=2) iop(6/42=6)

loop2.cluster111 

   -2  1 
   C     66.78000000   111.21000000    23.52000000
   C     66.74000000   112.52000000    24.29000000
   O     67.51000000   112.79000000    25.21000000
   H     67.79200000   111.03500000    23.15400000
   H     66.48600000   110.39200000    24.17800000
   H     66.09300000   111.26300000    22.67600000
   N     65.81000000   113.42000000    23.98000000
   C     65.47000000   114.65000000    24.67000000
   C     63.96000000   114.71000000    24.86000000
   O     63.45000000   114.74000000    25.97000000
   C     66.10000000   115.87000000    24.00000000
   C     65.77000000   117.26000000    24.53000000
   O     65.41000000   117.36000000    25.72000000
   O     65.98000000   118.26000000    23.80000000
   H     65.15000000   113.10000000    23.28000000
   H     65.95000000   114.82000000    25.63000000
   H     65.79000000   115.88000000    22.96000000
   H     67.18000000   115.77000000    23.86000000
   N     63.26000000   114.51000000    23.74000000
   C     61.83000000   114.69000000    23.58000000
   C     60.99000000   113.70000000    24.37000000
   O     60.01000000   114.05000000    25.02000000
   C     61.49000000   116.14000000    23.90000000
   H     63.77000000   114.25000000    22.90000000
   H     61.69000000   114.57000000    22.51000000
   H     61.51000000   116.39000000    24.96000000
   H     62.16000000   116.74000000    23.28000000
   H     60.49000000   116.48000000    23.65000000
   N     61.50000000   112.47000000    24.49000000
   C     60.97000000   111.36000000    25.25000000
   C     60.71000000   111.62000000    26.73000000
   O     60.05000000   110.88000000    27.45000000
   C     59.72000000   110.79000000    24.59000000
   C     60.02000000   110.02000000    23.31000000
   O     59.13000000   109.69000000    22.50000000
   O     61.22000000   109.83000000    23.02000000
   H     62.37000000   112.35000000    23.98000000
   H     61.78000000   110.62000000    25.28000000
   H     58.96000000   111.55000000    24.40000000
   H     59.28000000   110.08000000    25.29000000
   N     61.36000000   112.67000000    27.25000000
   C     61.33000000   113.14000000    28.62000000
   C     61.82000000   112.13000000    29.65000000
   O     62.79000000   111.39000000    29.49000000
   H     61.96000000   113.10000000    26.56000000
   H     60.31000000   113.42000000    28.87000000
   H     61.94000000   114.04000000    28.68000000
   N     61.08000000   111.99000000    30.75000000
   C     61.35000000   111.11000000    31.86000000
   C     62.76000000   111.22000000    32.43000000
   O     63.28000000   110.33000000    33.09000000
   C     60.86000000   109.70000000    31.52000000
   C     59.35000000   109.56000000    31.47000000
   N     58.73000000   109.65000000    30.29000000
   O     58.66000000   109.33000000    32.46000000
   H     60.27000000   112.58000000    30.83000000
   H     60.67000000   111.41000000    32.66000000
   H     61.14000000   109.00000000    32.30000000
   H     61.25000000   109.33000000    30.57000000
   H     59.37000000   109.74000000    29.51000000
   H     57.74000000   109.58000000    30.15000000
   N     63.48000000   112.31000000    32.13000000
   C     64.87000000   112.52000000    32.49000000
   C     65.97000000   112.18000000    31.50000000
   O     67.15000000   112.36000000    31.81000000
   H     63.00000000   113.07000000    31.67000000
   H     65.10000000   111.95000000    33.40000000
   H     65.01000000   113.57000000    32.71000000
   N     65.62000000   111.77000000    30.28000000
   C     66.52000000   111.15000000    29.32000000
   C     66.47000000   109.64000000    29.18000000
   O     65.51000000   108.96000000    29.56000000
   C     66.38000000   111.91000000    28.01000000
   C     64.95000000   111.83000000    27.47000000
   O     66.66000000   113.27000000    28.25000000
   H     64.64000000   111.85000000    30.06000000
   H     67.54000000   111.41000000    29.58000000
   H     67.08000000   111.42000000    27.34000000
   H     67.39000000   113.49000000    27.66000000
   H     64.28000000   112.39000000    28.11000000
   H     64.92000000   112.37000000    26.52000000
   H     64.53000000   110.85000000    27.26000000
   N     67.46000000   109.09000000    28.47000000
   C     67.46000000   107.78000000    27.86000000
   C     66.41000000   107.68000000    26.76000000
   O     66.00000000   108.69000000    26.20000000
   C     68.84000000   107.30000000    27.44000000
   C     69.41000000   108.20000000    26.34000000
   C     69.75000000   107.01000000    28.63000000
   C     70.70000000   107.71000000    25.70000000
   H     68.32000000   109.59000000    28.32000000
   H     67.11000000   107.14000000    28.67000000
   H     68.70000000   106.34000000    26.95000000
   H     69.60000000   109.21000000    26.71000000
   H     68.68000000   108.26000000    25.52000000
   H     69.73000000   107.78000000    29.41000000
   H     69.38000000   106.17000000    29.21000000
   H     70.74000000   106.81000000    28.23000000
   H     70.97000000   108.32000000    24.84000000
   H     71.52000000   107.80000000    26.41000000
   H     70.53000000   106.74000000    25.23000000
   N     66.01000000   106.43000000    26.53000000
   C     65.04000000   105.99000000    25.54000000
   C     64.16000000   104.96000000    26.22000000
   O     64.65000000   103.94000000    26.70000000
   C     65.83000000   105.48000000    24.33000000
   C     65.02000000   104.76000000    23.26000000
   O     63.82000000   105.07000000    23.10000000
   O     65.58000000   103.94000000    22.50000000
   H     66.38000000   105.75000000    27.18000000
   H     64.36000000   106.79000000    25.25000000
   H     66.50000000   104.75000000    24.77000000
   H     66.42000000   106.32000000    23.95000000
   N     62.85000000   105.19000000    26.29000000
   C     61.87000000   104.40000000    27.02000000
   C     61.18000000   105.22000000    28.10000000
   O     60.07000000   105.74000000    27.93000000
   C     60.95000000   103.71000000    26.02000000
   C     60.05000000   102.62000000    26.55000000
   C     58.67000000   102.83000000    26.59000000
   C     60.69000000   101.45000000    26.97000000
   C     57.83000000   101.82000000    27.08000000
   C     59.83000000   100.50000000    27.53000000
   C     58.44000000   100.65000000    27.56000000
   H     62.51000000   106.02000000    25.82000000
   H     62.42000000   103.65000000    27.59000000
   H     61.58000000   103.20000000    25.28000000
   H     60.42000000   104.45000000    25.42000000
   H     58.23000000   103.77000000    26.30000000
   H     61.73000000   101.26000000    26.75000000
   H     56.76000000   101.89000000    27.09000000
   H     60.24000000    99.55000000    27.84000000
   H     57.81000000    99.85000000    27.93000000
   N     61.77000000   105.32000000    29.29000000
   C     63.12000000   104.92000000    29.61000000
   C     63.28000000   103.45000000    29.96000000
   O     62.41000000   102.92000000    30.65000000
   C     63.48000000   105.62000000    30.92000000
   C     62.41000000   106.70000000    31.12000000
   C     61.22000000   106.08000000    30.39000000
   H     63.83000000   105.29000000    28.87000000
   H     63.31000000   104.93000000    31.74000000
   H     64.49000000   106.01000000    30.99000000
   H     62.13000000   106.94000000    32.14000000
   H     62.84000000   107.50000000    30.51000000
   H     60.62000000   105.48000000    31.07000000
   H     60.63000000   106.86000000    29.90000000
   N     64.36000000   102.80000000    29.54000000
   C     64.85000000   101.55000000    30.08000000
   C     66.37000000   101.43000000    30.11000000
   O     67.07000000   101.62000000    29.12000000
   C     64.20000000   100.38000000    29.35000000
   C     63.68000000    99.27000000    30.26000000
   C     64.81000000    98.76000000    31.14000000
   O     65.71000000    98.09000000    30.59000000
   O     64.77000000    98.90000000    32.38000000
   H     64.90000000   103.23000000    28.80000000
   H     64.52000000   101.47000000    31.12000000
   H     64.90000000    99.98000000    28.61000000
   H     63.32000000   100.75000000    28.84000000
   H     63.37000000    98.44000000    29.63000000
   H     62.88000000    99.75000000    30.83000000
   N     66.92000000   101.03000000    31.26000000
   C     68.35000000   101.02000000    31.46000000
   H     68.80200000   101.83200000    30.89100000
   H     68.57000000   101.15300000    32.51900000
   H     68.75800000   100.06800000    31.12000000
   H     66.37000000   100.98000000    32.10000000
  Ca     63.12000000   106.96500000    21.60000000
   O     63.80000000   108.45500000    23.81000000
   H     64.46000000   108.73500000    24.45000000
   H     63.17000000   109.17500000    23.79000000
   O     61.22000000   108.73500000    20.62000000
   H     60.32000000   108.41500000    20.52000000
   H     61.13000000   109.54500000    21.13000000
   O     64.11000000   105.26500000    19.73000000
   H     63.82000000   104.36500000    19.56000000
   H     64.98000000   105.31500000    19.34000000
   O     61.22000000   107.00500000    23.49000000
   H     61.58000000   107.00500000    24.38000000
   H     60.37000000   107.45500000    23.58000000
   O     66.08000000   106.71500000    21.32000000
   H     66.21000000   105.80500000    21.59000000
   H     66.67000000   106.82500000    20.57000000
   O     61.25000000   105.04500000    20.73000000
   H     61.05000000   104.20500000    21.15000000
   H     61.40000000   104.82500000    19.81000000

Ca 1.70



