%chk=loop3.cluster213.chk
%nprocshared=48
%mem=10GB
%nosave
#b3lyp/svp scf=(tight,noincore) Test 
#IOP(5/87=12) Density=Current Pop=(MK,readradii) iop(6/33=2) iop(6/42=6)

loop3.cluster213 

   0  1 
   C     40.72000000    77.55000000   -25.91000000
   C     40.19000000    76.56000000   -26.93000000
   O     41.03000000    75.86000000   -27.50000000
   H     41.62100000    78.02400000   -26.29900000
   H     39.96500000    78.31200000   -25.71600000
   H     40.95600000    77.02700000   -24.98300000
   N     38.90000000    76.56000000   -27.25000000
   C     38.33000000    75.71000000   -28.28000000
   C     37.43000000    74.59000000   -27.77000000
   O     36.94000000    74.63000000   -26.64000000
   C     37.65000000    76.57000000   -29.34000000
   C     37.34000000    75.78000000   -30.60000000
   O     36.36000000    76.22000000   -31.24000000
   O     37.84000000    74.67000000   -30.86000000
   H     38.30000000    77.30000000   -26.90000000
   H     39.21000000    75.20000000   -28.68000000
   H     38.25000000    77.41000000   -29.68000000
   H     36.76000000    77.07000000   -28.96000000
   N     37.29000000    73.49000000   -28.51000000
   C     36.47000000    72.31000000   -28.35000000
   C     34.96000000    72.52000000   -28.29000000
   O     34.21000000    71.58000000   -28.06000000
   C     37.07000000    71.44000000   -27.25000000
   C     38.52000000    70.97000000   -27.40000000
   C     38.89000000    70.38000000   -28.76000000
   C     38.03000000    69.21000000   -29.22000000
   N     38.73000000    68.48000000   -30.29000000
   H     37.63000000    73.61000000   -29.45000000
   H     36.43000000    71.80000000   -29.31000000
   H     36.54000000    70.49000000   -27.31000000
   H     37.02000000    71.97000000   -26.30000000
   H     38.79000000    70.24000000   -26.64000000
   H     39.18000000    71.82000000   -27.22000000
   H     39.89000000    69.99000000   -28.56000000
   H     39.01000000    71.13000000   -29.54000000
   H     37.14000000    69.70000000   -29.61000000
   H     37.75000000    68.50000000   -28.44000000
   H     38.25000000    67.60000000   -30.46000000
   H     38.75000000    68.99000000   -31.16000000
   H     39.67000000    68.29000000   -29.98000000
   N     34.50000000    73.76000000   -28.50000000
   C     33.08000000    74.03000000   -28.51000000
   C     32.91000000    75.38000000   -29.19000000
   O     33.86000000    76.16000000   -29.22000000
   C     32.55000000    74.10000000   -27.08000000
   C     31.03000000    74.17000000   -27.10000000
   O     30.46000000    74.61000000   -26.08000000
   O     30.36000000    73.80000000   -28.09000000
   H     35.15000000    74.49000000   -28.74000000
   H     32.58000000    73.26000000   -29.10000000
   H     32.92000000    74.98000000   -26.55000000
   H     32.88000000    73.22000000   -26.52000000
   N     31.71000000    75.65000000   -29.69000000
   C     31.10000000    76.85000000   -30.22000000
   C     29.68000000    77.05000000   -29.69000000
   O     29.09000000    76.11000000   -29.16000000
   H     31.03000000    74.93000000   -29.49000000
   H     31.01000000    76.81000000   -31.31000000
   H     31.75000000    77.72000000   -30.08000000
   N     29.28000000    78.32000000   -29.71000000
   C     28.16000000    78.75000000   -28.89000000
   C     27.32000000    79.82000000   -29.56000000
   O     26.22000000    80.18000000   -29.15000000
   C     28.67000000    79.13000000   -27.50000000
   C     29.06000000    77.84000000   -26.79000000
   N     30.32000000    77.39000000   -26.71000000
   O     28.22000000    77.00000000   -26.46000000
   H     29.88000000    78.99000000   -30.15000000
   H     27.45000000    77.94000000   -28.72000000
   H     27.83000000    79.51000000   -26.92000000
   H     29.48000000    79.85000000   -27.49000000
   H     31.10000000    77.93000000   -27.05000000
   H     30.46000000    76.48000000   -26.31000000
   N     27.88000000    80.47000000   -30.58000000
   C     27.43000000    81.79000000   -31.00000000
   C     27.45000000    82.89000000   -29.95000000
   O     28.31000000    82.86000000   -29.07000000
   H     28.65000000    80.07000000   -31.10000000
   H     26.35000000    81.70000000   -31.15000000
   H     27.92000000    82.17000000   -31.89000000
   N     26.49000000    83.81000000   -29.99000000
   C     26.03000000    84.75000000   -28.99000000
   C     25.46000000    84.17000000   -27.70000000
   O     24.93000000    84.90000000   -26.88000000
   C     27.12000000    85.79000000   -28.72000000
   C     27.44000000    86.54000000   -29.99000000
   C     28.65000000    86.21000000   -30.62000000
   C     26.57000000    87.45000000   -30.60000000
   C     29.07000000    86.90000000   -31.76000000
   C     26.95000000    88.07000000   -31.80000000
   C     28.19000000    87.80000000   -32.40000000
   O     28.40000000    88.40000000   -33.61000000
   H     25.92000000    83.61000000   -30.80000000
   H     25.14000000    85.24000000   -29.41000000
   H     28.01000000    85.29000000   -28.35000000
   H     26.83000000    86.59000000   -28.04000000
   H     29.37000000    85.48000000   -30.29000000
   H     25.61000000    87.66000000   -30.14000000
   H     30.08000000    86.72000000   -32.09000000
   H     26.27000000    88.82000000   -32.17000000
   H     27.66000000    88.92000000   -33.93000000
   N     25.67000000    82.86000000   -27.52000000
   C     25.32000000    82.08000000   -26.35000000
   C     23.81000000    81.88000000   -26.26000000
   O     23.40000000    80.75000000   -26.01000000
   C     26.13000000    82.53000000   -25.14000000
   C     27.65000000    82.52000000   -25.32000000
   C     25.83000000    81.62000000   -23.96000000
   C     28.51000000    83.19000000   -24.25000000
   H     25.88000000    82.35000000   -28.36000000
   H     25.60000000    81.03000000   -26.49000000
   H     25.74000000    83.49000000   -24.79000000
   H     27.99000000    83.03000000   -26.23000000
   H     27.99000000    81.49000000   -25.44000000
   H     26.34000000    80.66000000   -23.92000000
   H     26.03000000    82.11000000   -23.01000000
   H     24.79000000    81.29000000   -23.88000000
   H     28.44000000    82.60000000   -23.34000000
   H     29.56000000    83.26000000   -24.55000000
   H     28.15000000    84.19000000   -24.02000000
   N     22.97000000    82.91000000   -26.35000000
   C     21.54000000    82.88000000   -26.10000000
   C     21.23000000    82.28000000   -24.74000000
   O     20.43000000    81.34000000   -24.76000000
   C     20.96000000    84.28000000   -26.30000000
   O     19.65000000    84.29000000   -25.77000000
   H     23.32000000    83.71000000   -26.85000000
   H     20.98000000    82.21000000   -26.75000000
   H     20.98000000    84.55000000   -27.36000000
   H     21.54000000    85.05000000   -25.80000000
   H     19.29000000    85.15000000   -26.02000000
   N     22.01000000    82.63000000   -23.71000000
   C     21.87000000    82.07000000   -22.38000000
   C     22.15000000    80.60000000   -22.11000000
   O     22.11000000    80.27000000   -20.93000000
   C     20.53000000    82.58000000   -21.87000000
   H     22.70000000    83.36000000   -23.81000000
   H     22.60000000    82.62000000   -21.78000000
   H     20.55000000    82.27000000   -20.82000000
   H     20.47000000    83.67000000   -21.81000000
   H     19.76000000    82.11000000   -22.49000000
   N     22.46000000    79.81000000   -23.14000000
   C     22.59000000    78.37000000   -23.07000000
   C     23.98000000    77.90000000   -22.64000000
   O     25.00000000    78.53000000   -22.90000000
   C     22.18000000    77.83000000   -24.44000000
   H     22.55000000    80.21000000   -24.06000000
   H     21.91000000    78.00000000   -22.30000000
   H     22.13000000    76.74000000   -24.45000000
   H     21.14000000    78.09000000   -24.65000000
   H     22.89000000    78.29000000   -25.13000000
   N     24.06000000    76.72000000   -22.03000000
   C     25.24000000    76.05000000   -21.51000000
   C     25.92000000    76.82000000   -20.38000000
   O     27.08000000    76.63000000   -20.02000000
   C     26.06000000    75.55000000   -22.69000000
   C     25.29000000    74.59000000   -23.59000000
   C     26.18000000    74.29000000   -24.79000000
   O     25.79000000    74.47000000   -25.96000000
   O     27.33000000    73.82000000   -24.61000000
   H     23.17000000    76.28000000   -21.82000000
   H     24.80000000    75.21000000   -20.97000000
   H     26.98000000    75.09000000   -22.32000000
   H     26.45000000    76.29000000   -23.39000000
   H     24.41000000    75.15000000   -23.91000000
   H     25.05000000    73.68000000   -23.04000000
   N     25.17000000    77.68000000   -19.69000000
   C     25.78000000    78.60000000   -18.75000000
   H     26.69200000    79.01100000   -19.18400000
   H     25.08500000    79.41100000   -18.53100000
   H     26.02300000    78.07100000   -17.82900000
   H     24.19000000    77.76000000   -19.90000000
  Ca     28.01000000    74.40000000   -27.12900000
   O     26.06000000    75.41000000   -28.74900000
   H     25.69000000    76.17000000   -28.30900000
   H     25.33000000    75.04000000   -29.24900000
   O     28.48000000    71.85000000   -27.05900000
   H     28.87000000    71.14000000   -27.56900000
   H     28.11000000    71.41000000   -26.28900000

Ca 1.70



