%chk=loop2.cluster232.chk
%nprocshared=48
%mem=10GB
%nosave
#b3lyp/svp scf=(tight,noincore) Test 
#IOP(5/87=12) Density=Current Pop=(MK,readradii) iop(6/33=2) iop(6/42=6)

loop2.cluster232 

   -2  1 
   C     80.36000000    41.81000000    50.17000000
   C     78.93000000    42.01000000    49.70000000
   O     78.08000000    41.17000000    49.98000000
   H     80.97500000    42.64100000    49.82500000
   H     80.38300000    41.77000000    51.25900000
   H     80.75000000    40.87700000    49.76300000
   N     78.61000000    43.02000000    48.90000000
   C     77.33000000    43.20000000    48.23000000
   C     76.48000000    44.28000000    48.89000000
   O     76.90000000    44.93000000    49.85000000
   C     77.49000000    43.37000000    46.73000000
   C     78.74000000    44.13000000    46.29000000
   O     79.41000000    43.65000000    45.35000000
   O     79.05000000    45.20000000    46.86000000
   H     79.30000000    43.74000000    48.74000000
   H     76.74000000    42.31000000    48.46000000
   H     76.60000000    43.79000000    46.26000000
   H     77.54000000    42.37000000    46.31000000
   N     75.23000000    44.44000000    48.45000000
   C     74.14000000    45.03000000    49.20000000
   C     74.00000000    44.30000000    50.53000000
   O     74.50000000    43.20000000    50.78000000
   C     72.91000000    44.88000000    48.32000000
   H     74.97000000    43.82000000    47.70000000
   H     74.30000000    46.10000000    49.34000000
   H     72.63000000    45.79000000    47.79000000
   H     73.00000000    44.18000000    47.49000000
   H     72.08000000    44.46000000    48.89000000
   N     73.33000000    44.84000000    51.55000000
   C     72.67000000    46.13000000    51.61000000
   C     73.66000000    47.29000000    51.61000000
   O     74.85000000    47.17000000    51.90000000
   C     71.82000000    46.25000000    52.87000000
   C     70.84000000    45.12000000    53.15000000
   O     70.72000000    44.74000000    54.34000000
   O     70.20000000    44.66000000    52.19000000
   H     73.16000000    44.32000000    52.40000000
   H     72.11000000    46.28000000    50.69000000
   H     71.25000000    47.17000000    52.83000000
   H     72.55000000    46.41000000    53.67000000
   N     73.16000000    48.50000000    51.36000000
   C     74.02000000    49.64000000    51.18000000
   C     75.11000000    49.55000000    50.12000000
   O     74.91000000    48.93000000    49.08000000
   H     72.18000000    48.60000000    51.12000000
   H     74.58000000    49.80000000    52.11000000
   H     73.35000000    50.49000000    51.05000000
   N     76.35000000    50.02000000    50.33000000
   C     76.90000000    50.64000000    51.51000000
   C     77.92000000    49.76000000    52.21000000
   O     78.70000000    50.18000000    53.07000000
   C     77.62000000    51.92000000    51.09000000
   C     76.71000000    53.06000000    50.65000000
   N     77.27000000    54.13000000    50.08000000
   O     75.52000000    53.07000000    50.95000000
   H     76.96000000    49.76000000    49.56000000
   H     76.17000000    51.04000000    52.21000000
   H     78.29000000    51.61000000    50.29000000
   H     78.17000000    52.27000000    51.96000000
   H     78.21000000    54.14000000    49.71000000
   H     76.61000000    54.81000000    49.73000000
   N     77.96000000    48.49000000    51.79000000
   C     78.75000000    47.50000000    52.48000000
   C     78.17000000    47.09000000    53.83000000
   O     78.89000000    47.03000000    54.82000000
   H     77.32000000    48.16000000    51.07000000
   H     79.80000000    47.76000000    52.61000000
   H     78.71000000    46.55000000    51.93000000
   N     76.85000000    46.93000000    53.93000000
   C     76.31000000    46.85000000    55.27000000
   C     75.54000000    45.56000000    55.51000000
   O     75.07000000    44.93000000    54.57000000
   C     75.50000000    48.11000000    55.53000000
   C     75.12000000    48.34000000    56.99000000
   O     76.23000000    49.24000000    55.11000000
   H     76.34000000    47.02000000    53.07000000
   H     76.91000000    46.98000000    56.17000000
   H     74.52000000    48.04000000    55.06000000
   H     75.56000000    49.73000000    54.63000000
   H     74.57000000    49.29000000    57.04000000
   H     74.42000000    47.59000000    57.37000000
   H     75.98000000    48.32000000    57.65000000
   N     75.53000000    45.12000000    56.77000000
   C     75.47000000    43.77000000    57.30000000
   C     74.49000000    43.77000000    58.47000000
   O     74.23000000    44.81000000    59.08000000
   C     76.86000000    43.29000000    57.70000000
   C     77.91000000    43.02000000    56.63000000
   C     77.46000000    44.26000000    58.72000000
   C     77.28000000    42.36000000    55.40000000
   H     75.98000000    45.70000000    57.47000000
   H     75.00000000    43.09000000    56.59000000
   H     76.77000000    42.35000000    58.25000000
   H     78.63000000    42.36000000    57.10000000
   H     78.39000000    43.92000000    56.24000000
   H     78.35000000    43.83000000    59.17000000
   H     77.75000000    45.16000000    58.17000000
   H     76.73000000    44.48000000    59.50000000
   H     78.15000000    42.24000000    54.75000000
   H     77.01000000    41.32000000    55.54000000
   H     76.49000000    42.96000000    54.95000000
   N     73.88000000    42.62000000    58.75000000
   C     73.09000000    42.43000000    59.95000000
   C     72.84000000    40.98000000    60.34000000
   O     72.56000000    40.16000000    59.47000000
   C     71.74000000    43.11000000    59.77000000
   C     71.07000000    42.81000000    58.44000000
   O     71.19000000    43.70000000    57.56000000
   O     70.40000000    41.78000000    58.22000000
   H     73.85000000    41.89000000    58.06000000
   H     73.57000000    42.91000000    60.81000000
   H     71.99000000    44.17000000    59.70000000
   H     71.01000000    42.89000000    60.55000000
   N     73.04000000    40.58000000    61.60000000
   C     73.17000000    39.21000000    62.05000000
   C     74.21000000    38.35000000    61.35000000
   O     75.25000000    38.89000000    60.99000000
   C     73.34000000    39.20000000    63.57000000
   C     73.22000000    37.82000000    64.18000000
   C     74.31000000    36.98000000    64.42000000
   C     71.91000000    37.41000000    64.43000000
   C     74.07000000    35.68000000    64.89000000
   C     71.69000000    36.09000000    64.85000000
   C     72.77000000    35.25000000    65.15000000
   H     73.18000000    41.28000000    62.31000000
   H     72.20000000    38.73000000    61.87000000
   H     72.53000000    39.79000000    64.00000000
   H     74.25000000    39.74000000    63.81000000
   H     75.29000000    37.41000000    64.27000000
   H     71.09000000    38.06000000    64.17000000
   H     74.88000000    34.99000000    65.06000000
   H     70.68000000    35.72000000    64.97000000
   H     72.56000000    34.30000000    65.62000000
   N     74.02000000    37.08000000    60.95000000
   C     74.96000000    36.15000000    60.36000000
   C     75.56000000    36.63000000    59.05000000
   O     76.55000000    36.09000000    58.58000000
   C     74.20000000    34.83000000    60.22000000
   C     73.04000000    34.92000000    61.21000000
   C     72.74000000    36.41000000    61.02000000
   H     75.75000000    35.93000000    61.08000000
   H     73.89000000    34.62000000    59.19000000
   H     74.87000000    34.04000000    60.56000000
   H     72.16000000    34.31000000    61.01000000
   H     73.42000000    34.75000000    62.21000000
   H     72.26000000    36.58000000    60.06000000
   H     72.07000000    36.68000000    61.83000000
   N     75.05000000    37.66000000    58.35000000
   C     75.47000000    38.15000000    57.06000000
   C     76.93000000    38.57000000    57.14000000
   O     77.70000000    38.49000000    56.18000000
   C     74.50000000    39.22000000    56.58000000
   C     73.05000000    38.81000000    56.36000000
   C     72.25000000    40.02000000    55.92000000
   O     71.07000000    39.84000000    55.54000000
   O     72.63000000    41.21000000    56.03000000
   H     74.19000000    38.06000000    58.67000000
   H     75.37000000    37.35000000    56.31000000
   H     74.88000000    39.73000000    55.69000000
   H     74.45000000    39.97000000    57.37000000
   H     72.57000000    38.41000000    57.25000000
   H     72.97000000    38.11000000    55.52000000
   N     77.32000000    39.05000000    58.33000000
   C     78.60000000    39.61000000    58.70000000
   H     79.31600000    39.44000000    57.89600000
   H     78.49300000    40.68100000    58.87000000
   H     78.95700000    39.13000000    59.61100000
   H     76.66000000    38.93000000    59.08000000
  Ca     70.34000000    42.51000000    55.56000000
   O     68.90000000    41.63000000    53.60000000
   H     69.36000000    41.79000000    52.77000000
   H     68.05000000    41.28000000    53.33000000

Ca 1.70



