%chk=loop2.cluster138.chk
%nprocshared=48
%mem=10GB
%nosave
#b3lyp/svp scf=(tight,noincore) Test 
#IOP(5/87=12) Density=Current Pop=(MK,readradii) iop(6/33=2) iop(6/42=6)

loop2.cluster138 

   -2  1 
   C     93.12000000    60.45000000    22.93000000
   C     94.60000000    60.78000000    22.81000000
   O     94.99000000    61.81000000    22.26000000
   H     92.55400000    61.05800000    22.22400000
   H     92.96300000    59.39500000    22.70700000
   H     92.78100000    60.66200000    23.94400000
   N     95.39000000    59.87000000    23.40000000
   C     96.84000000    59.88000000    23.31000000
   C     97.57000000    60.87000000    24.21000000
   O     98.77000000    60.65000000    24.32000000
   C     97.31000000    58.44000000    23.49000000
   C     98.72000000    58.15000000    23.01000000
   O     99.13000000    58.70000000    21.96000000
   O     99.28000000    57.20000000    23.60000000
   H     94.95000000    59.14000000    23.93000000
   H     97.08000000    60.05000000    22.26000000
   H     96.64000000    57.76000000    22.95000000
   H     97.28000000    58.24000000    24.57000000
   N     96.87000000    61.87000000    24.75000000
   C     97.42000000    62.98000000    25.51000000
   C     96.26000000    63.61000000    26.27000000
   O     95.08000000    63.47000000    25.97000000
   C     98.07000000    63.97000000    24.55000000
   H     95.96000000    62.02000000    24.34000000
   H     98.21000000    62.65000000    26.18000000
   H     98.18000000    64.99000000    24.89000000
   H     99.09000000    63.60000000    24.42000000
   H     97.45000000    64.06000000    23.65000000
   N     96.54000000    64.43000000    27.29000000
   C     97.81000000    64.70000000    27.94000000
   C     98.19000000    63.71000000    29.03000000
   O     97.45000000    62.83000000    29.46000000
   C     97.84000000    66.15000000    28.41000000
   C     97.59000000    67.10000000    27.25000000
   O     98.49000000    67.15000000    26.38000000
   O     96.57000000    67.82000000    27.21000000
   H     95.76000000    65.02000000    27.54000000
   H     98.63000000    64.66000000    27.22000000
   H     98.84000000    66.43000000    28.76000000
   H     97.16000000    66.33000000    29.24000000
   N     99.47000000    63.81000000    29.39000000
   C     99.95000000    62.76000000    30.27000000
   C    100.10000000    61.45000000    29.50000000
   O    100.25000000    61.50000000    28.28000000
   H    100.12000000    64.52000000    29.09000000
   H     99.31000000    62.78000000    31.15000000
   H    100.97000000    63.02000000    30.57000000
   N    100.03000000    60.26000000    30.10000000
   C     99.99000000    60.05000000    31.53000000
   C     98.68000000    60.31000000    32.24000000
   O     98.66000000    60.19000000    33.47000000
   C    100.51000000    58.64000000    31.84000000
   C    101.89000000    58.36000000    31.26000000
   N    102.92000000    58.20000000    32.09000000
   O    101.98000000    58.18000000    30.05000000
   H     99.88000000    59.44000000    29.53000000
   H    100.73000000    60.72000000    31.96000000
   H     99.76000000    57.89000000    31.57000000
   H    100.56000000    58.52000000    32.92000000
   H    102.79000000    58.32000000    33.09000000
   H    103.86000000    58.02000000    31.78000000
   N     97.62000000    60.82000000    31.61000000
   C     96.48000000    61.27000000    32.39000000
   C     96.49000000    62.67000000    32.99000000
   O     96.17000000    62.78000000    34.17000000
   H     97.64000000    61.04000000    30.63000000
   H     96.34000000    60.63000000    33.26000000
   H     95.57000000    61.19000000    31.79000000
   N     97.04000000    63.65000000    32.27000000
   C     97.35000000    65.01000000    32.66000000
   C     96.41000000    66.04000000    32.06000000
   O     96.77000000    67.20000000    31.84000000
   C     98.79000000    65.48000000    32.46000000
   C     99.19000000    66.63000000    33.38000000
   O     99.69000000    64.51000000    32.94000000
   H     97.47000000    63.34000000    31.41000000
   H     97.14000000    65.09000000    33.73000000
   H     98.98000000    65.74000000    31.41000000
   H    100.51000000    64.97000000    32.77000000
   H     99.11000000    66.29000000    34.41000000
   H    100.21000000    66.86000000    33.09000000
   H     98.62000000    67.55000000    33.19000000
   N     95.16000000    65.60000000    31.86000000
   C     94.10000000    66.45000000    31.38000000
   C     93.64000000    67.54000000    32.34000000
   O     93.88000000    67.51000000    33.55000000
   C     92.93000000    65.60000000    30.88000000
   C     93.11000000    64.64000000    29.71000000
   C     92.20000000    64.91000000    32.02000000
   C     94.18000000    63.55000000    29.77000000
   H     94.96000000    64.66000000    32.18000000
   H     94.41000000    66.89000000    30.43000000
   H     92.14000000    66.22000000    30.45000000
   H     93.24000000    65.30000000    28.85000000
   H     92.17000000    64.12000000    29.57000000
   H     91.89000000    65.73000000    32.67000000
   H     91.33000000    64.34000000    31.69000000
   H     92.88000000    64.20000000    32.49000000
   H     95.17000000    63.99000000    29.66000000
   H     94.17000000    62.92000000    30.66000000
   H     94.07000000    62.90000000    28.90000000
   N     92.98000000    68.53000000    31.75000000
   C     92.69000000    69.76000000    32.46000000
   C     91.48000000    70.47000000    31.86000000
   O     91.39000000    70.71000000    30.66000000
   C     93.82000000    70.79000000    32.45000000
   C     94.62000000    70.89000000    31.16000000
   O     95.39000000    69.94000000    30.89000000
   O     94.50000000    71.87000000    30.39000000
   H     92.89000000    68.58000000    30.74000000
   H     92.48000000    69.51000000    33.50000000
   H     94.45000000    70.40000000    33.25000000
   H     93.40000000    71.71000000    32.87000000
   N     90.56000000    70.89000000    32.73000000
   C     89.37000000    71.58000000    32.26000000
   C     88.55000000    70.78000000    31.26000000
   O     88.26000000    69.66000000    31.67000000
   C     88.54000000    72.29000000    33.32000000
   C     87.29000000    72.95000000    32.79000000
   C     86.06000000    72.32000000    32.58000000
   C     87.44000000    74.27000000    32.35000000
   C     85.00000000    73.01000000    31.98000000
   C     86.34000000    75.05000000    31.95000000
   C     85.14000000    74.37000000    31.70000000
   H     90.55000000    70.58000000    33.69000000
   H     89.77000000    72.45000000    31.74000000
   H     89.16000000    73.04000000    33.82000000
   H     88.36000000    71.56000000    34.12000000
   H     86.00000000    71.29000000    32.89000000
   H     88.39000000    74.76000000    32.45000000
   H     84.09000000    72.49000000    31.70000000
   H     86.48000000    76.08000000    31.69000000
   H     84.27000000    74.90000000    31.34000000
   N     88.10000000    71.28000000    30.10000000
   C     87.07000000    70.53000000    29.40000000
   C     87.48000000    69.20000000    28.79000000
   O     86.57000000    68.49000000    28.35000000
   C     86.56000000    71.48000000    28.32000000
   C     87.17000000    72.85000000    28.63000000
   C     88.37000000    72.58000000    29.54000000
   H     86.33000000    70.35000000    30.17000000
   H     86.81000000    71.17000000    27.31000000
   H     85.47000000    71.57000000    28.36000000
   H     87.50000000    73.43000000    27.78000000
   H     86.39000000    73.41000000    29.14000000
   H     89.28000000    72.47000000    28.95000000
   H     88.53000000    73.30000000    30.34000000
   N     88.76000000    68.82000000    28.85000000
   C     89.37000000    67.56000000    28.47000000
   C     88.74000000    66.41000000    29.24000000
   O     88.48000000    65.37000000    28.64000000
   C     90.88000000    67.80000000    28.60000000
   C     91.40000000    68.82000000    27.60000000
   C     92.91000000    68.93000000    27.75000000
   O     93.46000000    68.80000000    28.87000000
   O     93.61000000    69.12000000    26.73000000
   H     89.41000000    69.44000000    29.31000000
   H     89.14000000    67.33000000    27.43000000
   H     91.36000000    66.85000000    28.36000000
   H     91.03000000    67.90000000    29.68000000
   H     90.92000000    69.80000000    27.62000000
   H     91.17000000    68.49000000    26.59000000
   N     88.44000000    66.63000000    30.52000000
   C     87.68000000    65.66000000    31.29000000
   H     86.70400000    65.51400000    30.82700000
   H     88.21700000    64.71100000    31.31100000
   H     87.54800000    66.02600000    32.30800000
   H     88.63000000    67.52000000    30.95000000
  Ca     95.79000000    70.03000000    28.30000000
   O     98.22000000    70.06000000    27.01000000
   H     98.54000000    69.27000000    26.57000000
   H     98.83000000    70.75000000    26.72000000
   O     96.90000000    72.20000000    29.41000000
   H     97.56000000    72.85000000    29.65000000
   H     96.10000000    72.51000000    29.82000000
   O     95.56000000    70.44000000    25.46000000
   H     95.82000000    69.74000000    24.86000000
   H     94.62000000    70.31000000    25.60000000
   O     97.73000000    68.88000000    29.80000000
   H     98.69000000    68.79000000    29.80000000
   H     97.45000000    68.49000000    30.62000000
   O     94.26000000    72.28000000    27.11000000
   H     94.24000000    73.06000000    26.56000000
   H     93.47000000    72.34000000    27.64000000

Ca 1.70



