%chk=loop2.cluster179.chk
%nprocshared=48
%mem=10GB
%nosave
#b3lyp/svp scf=(tight,noincore) Test 
#IOP(5/87=12) Density=Current Pop=(MK,readradii) iop(6/33=2) iop(6/42=6)

loop2.cluster179 

   -2  1 
   C     49.41000000    44.16000000     4.80000000
   C     48.09000000    44.53000000     4.12000000
   O     47.59000000    45.65000000     4.05000000
   H     50.14700000    44.94100000     4.61200000
   H     49.25100000    44.06200000     5.87400000
   H     49.77400000    43.21400000     4.39800000
   N     47.32000000    43.65000000     3.48000000
   C     47.41000000    42.22000000     3.25000000
   C     47.12000000    41.55000000     4.59000000
   O     46.29000000    41.95000000     5.41000000
   C     46.38000000    41.88000000     2.18000000
   C     45.01000000    42.56000000     2.10000000
   O     44.25000000    42.44000000     1.12000000
   O     44.56000000    43.13000000     3.12000000
   H     46.40000000    43.98000000     3.24000000
   H     48.42000000    42.01000000     2.90000000
   H     46.22000000    40.80000000     2.24000000
   H     46.89000000    42.20000000     1.27000000
   N     47.81000000    40.43000000     4.78000000
   C     47.75000000    39.36000000     5.77000000
   C     46.41000000    38.64000000     5.85000000
   O     46.39000000    37.44000000     6.13000000
   C     48.24000000    39.81000000     7.14000000
   H     48.47000000    40.22000000     4.06000000
   H     48.46000000    38.62000000     5.40000000
   H     47.99000000    40.84000000     7.40000000
   H     47.85000000    39.23000000     7.97000000
   H     49.33000000    39.76000000     7.17000000
   N     45.31000000    39.38000000     5.72000000
   C     44.03000000    38.86000000     5.28000000
   C     43.42000000    39.61000000     4.10000000
   O     43.31000000    40.83000000     4.20000000
   C     43.03000000    38.87000000     6.44000000
   C     43.20000000    40.04000000     7.40000000
   O     43.35000000    41.21000000     6.99000000
   O     43.18000000    39.85000000     8.63000000
   H     45.41000000    40.38000000     5.73000000
   H     44.15000000    37.82000000     4.98000000
   H     43.10000000    37.97000000     7.06000000
   H     42.04000000    38.82000000     5.98000000
   N     43.02000000    38.90000000     3.05000000
   C     42.64000000    39.45000000     1.76000000
   C     41.37000000    40.29000000     1.81000000
   O     40.27000000    39.82000000     1.52000000
   H     43.20000000    37.90000000     3.07000000
   H     42.51000000    38.56000000     1.15000000
   H     43.52000000    40.00000000     1.44000000
   N     41.47000000    41.56000000     2.21000000
   C     40.41000000    42.53000000     2.37000000
   C     40.88000000    43.97000000     2.21000000
   O     40.00000000    44.83000000     2.25000000
   C     39.65000000    42.24000000     3.66000000
   C     40.52000000    42.45000000     4.90000000
   N     40.27000000    41.68000000     5.96000000
   O     41.37000000    43.33000000     5.05000000
   H     42.39000000    41.92000000     2.42000000
   H     39.73000000    42.39000000     1.53000000
   H     39.24000000    41.24000000     3.60000000
   H     38.83000000    42.95000000     3.74000000
   H     39.85000000    40.76000000     5.88000000
   H     40.84000000    41.80000000     6.79000000
   N     42.18000000    44.25000000     2.06000000
   C     42.79000000    45.55000000     1.91000000
   C     43.01000000    46.24000000     3.25000000
   O     43.23000000    45.49000000     4.20000000
   H     42.86000000    43.51000000     2.07000000
   H     42.05000000    46.14000000     1.38000000
   H     43.78000000    45.56000000     1.44000000
   N     42.81000000    47.55000000     3.41000000
   C     42.85000000    48.59000000     2.41000000
   C     43.80000000    49.76000000     2.67000000
   O     43.78000000    50.79000000     2.00000000
   C     41.40000000    48.96000000     2.09000000
   C     40.71000000    49.73000000     3.21000000
   O     41.28000000    49.62000000     0.85000000
   H     42.71000000    47.86000000     4.36000000
   H     43.24000000    48.13000000     1.50000000
   H     40.91000000    47.99000000     2.02000000
   H     41.53000000    50.54000000     0.97000000
   H     40.50000000    49.08000000     4.05000000
   H     41.27000000    50.60000000     3.54000000
   H     39.80000000    50.22000000     2.86000000
   N     44.61000000    49.60000000     3.72000000
   C     45.47000000    50.58000000     4.36000000
   C     44.73000000    51.86000000     4.74000000
   O     44.84000000    52.97000000     4.24000000
   C     46.80000000    50.81000000     3.66000000
   C     47.45000000    49.53000000     3.15000000
   C     47.80000000    51.53000000     4.57000000
   C     48.87000000    49.83000000     2.67000000
   H     44.63000000    48.69000000     4.16000000
   H     45.72000000    50.04000000     5.27000000
   H     46.60000000    51.47000000     2.82000000
   H     46.84000000    49.16000000     2.33000000
   H     47.44000000    48.76000000     3.92000000
   H     47.22000000    52.23000000     5.17000000
   H     48.20000000    50.90000000     5.37000000
   H     48.58000000    52.03000000     3.99000000
   H     49.59000000    50.04000000     3.46000000
   H     49.25000000    48.97000000     2.13000000
   H     48.82000000    50.70000000     2.01000000
   N     43.93000000    51.71000000     5.80000000
   C     43.63000000    50.61000000     6.69000000
   C     44.38000000    50.73000000     8.01000000
   O     45.10000000    49.81000000     8.40000000
   C     42.13000000    50.45000000     6.95000000
   C     41.29000000    51.69000000     7.18000000
   O     40.17000000    51.53000000     7.71000000
   O     41.79000000    52.82000000     7.00000000
   H     43.54000000    52.57000000     6.16000000
   H     43.90000000    49.66000000     6.22000000
   H     41.98000000    49.75000000     7.77000000
   H     41.68000000    49.96000000     6.09000000
   N     44.22000000    51.86000000     8.70000000
   C     44.37000000    51.98000000    10.14000000
   C     43.10000000    51.70000000    10.94000000
   O     42.04000000    52.20000000    10.57000000
   C     45.05000000    53.31000000    10.47000000
   C     44.00000000    54.35000000    10.76000000
   C     43.66000000    55.27000000     9.76000000
   C     43.63000000    54.59000000    12.08000000
   C     42.68000000    56.23000000    10.04000000
   C     42.79000000    55.66000000    12.41000000
   C     42.27000000    56.43000000    11.36000000
   H     43.63000000    52.55000000     8.26000000
   H     45.11000000    51.21000000    10.35000000
   H     45.69000000    53.71000000     9.68000000
   H     45.70000000    53.15000000    11.32000000
   H     44.08000000    55.19000000     8.77000000
   H     44.02000000    53.91000000    12.83000000
   H     42.36000000    57.00000000     9.35000000
   H     42.54000000    55.95000000    13.43000000
   H     41.62000000    57.24000000    11.63000000
   N     43.18000000    50.92000000    12.02000000
   C     44.23000000    49.97000000    12.35000000
   C     44.21000000    48.77000000    11.41000000
   O     43.29000000    48.48000000    10.65000000
   C     43.87000000    49.56000000    13.77000000
   C     42.36000000    49.65000000    13.93000000
   C     42.03000000    50.70000000    12.88000000
   H     45.22000000    50.41000000    12.23000000
   H     44.19000000    48.52000000    13.91000000
   H     44.26000000    50.26000000    14.50000000
   H     41.93000000    48.77000000    13.46000000
   H     42.05000000    49.88000000    14.95000000
   H     41.17000000    50.37000000    12.31000000
   H     41.85000000    51.67000000    13.36000000
   N     45.40000000    48.17000000    11.39000000
   C     45.83000000    47.20000000    10.40000000
   C     47.19000000    46.57000000    10.64000000
   O     47.31000000    45.43000000    11.08000000
   C     44.82000000    46.09000000    10.12000000
   C     44.30000000    45.35000000    11.35000000
   C     43.47000000    44.14000000    10.94000000
   O     42.41000000    44.27000000    10.30000000
   O     43.96000000    43.01000000    11.13000000
   H     46.08000000    48.49000000    12.06000000
   H     45.85000000    47.86000000     9.53000000
   H     45.41000000    45.42000000     9.49000000
   H     44.07000000    46.51000000     9.45000000
   H     43.60000000    46.01000000    11.86000000
   H     45.08000000    45.03000000    12.04000000
   N     48.33000000    47.14000000    10.24000000
   C     48.52000000    48.57000000    10.19000000
   H     49.45800000    48.79400000     9.68100000
   H     47.69400000    49.02800000     9.64600000
   H     48.55400000    48.96800000    11.20400000
   H     49.15000000    46.54000000    10.33000000
  Ca     43.97000000    43.27000000     5.51000000
   O     45.69000000    44.87000000     6.59000000
   H     46.39000000    44.64000000     7.20000000
   H     45.84000000    45.80000000     6.39000000
   O     43.02000000    44.53000000     7.83000000
   H     42.82000000    45.44000000     7.63000000
   H     42.66000000    44.39000000     8.71000000

Ca 1.70



