%chk=loop3.cluster85.chk
%nprocshared=48
%mem=10GB
%nosave
#b3lyp/svp scf=(tight,noincore) Test 
#IOP(5/87=12) Density=Current Pop=(MK,readradii) iop(6/33=2) iop(6/42=6)

loop3.cluster85 

   0  1 
   C    104.66000000    59.45000000    20.19000000
   C    105.94000000    58.64000000    20.00000000
   O    105.88000000    57.52000000    19.51000000
   H    103.86300000    58.79300000    20.53800000
   H    104.83200000    60.23400000    20.92800000
   H    104.37000000    59.90100000    19.24100000
   N    107.12000000    59.20000000    20.26000000
   C    108.39000000    58.63000000    19.87000000
   C    108.77000000    57.47000000    20.79000000
   O    108.70000000    56.32000000    20.37000000
   C    109.45000000    59.73000000    19.86000000
   C    109.41000000    60.84000000    20.90000000
   O    109.20000000    60.56000000    22.09000000
   O    109.53000000    62.01000000    20.45000000
   H    107.10000000    60.09000000    20.74000000
   H    108.29000000    58.21000000    18.87000000
   H    109.37000000    60.09000000    18.84000000
   H    110.43000000    59.26000000    19.75000000
   N    109.10000000    57.79000000    22.04000000
   C    109.59000000    56.79000000    22.96000000
   C    110.99000000    56.41000000    22.48000000
   O    111.96000000    56.96000000    22.99000000
   C    109.56000000    57.35000000    24.38000000
   C    110.05000000    56.28000000    25.36000000
   C    109.80000000    56.70000000    26.80000000
   C    109.82000000    55.51000000    27.76000000
   N    109.95000000    55.82000000    29.19000000
   H    109.06000000    58.76000000    22.33000000
   H    109.02000000    55.87000000    22.92000000
   H    108.55000000    57.66000000    24.64000000
   H    110.22000000    58.20000000    24.52000000
   H    111.13000000    56.16000000    25.25000000
   H    109.67000000    55.27000000    25.21000000
   H    108.81000000    57.16000000    26.84000000
   H    110.46000000    57.52000000    27.11000000
   H    110.68000000    54.93000000    27.41000000
   H    108.90000000    54.94000000    27.64000000
   H    109.92000000    54.96000000    29.71000000
   H    110.79000000    56.33000000    29.43000000
   H    109.22000000    56.43000000    29.52000000
   N    111.06000000    55.53000000    21.48000000
   C    112.31000000    55.14000000    20.87000000
   C    112.25000000    55.03000000    19.36000000
   O    113.32000000    55.02000000    18.75000000
   C    112.85000000    53.92000000    21.61000000
   C    112.05000000    52.64000000    21.41000000
   O    111.04000000    52.62000000    20.67000000
   O    112.47000000    51.60000000    21.97000000
   H    110.20000000    55.25000000    21.03000000
   H    113.07000000    55.87000000    21.15000000
   H    112.83000000    54.11000000    22.69000000
   H    113.89000000    53.88000000    21.29000000
   N    111.05000000    54.97000000    18.77000000
   C    110.77000000    54.58000000    17.40000000
   C    109.44000000    55.11000000    16.90000000
   O    108.55000000    55.44000000    17.68000000
   H    110.22000000    55.21000000    19.29000000
   H    110.83000000    53.49000000    17.36000000
   H    111.45000000    54.94000000    16.63000000
   N    109.08000000    55.11000000    15.61000000
   C    109.94000000    55.18000000    14.44000000
   C    109.21000000    54.54000000    13.27000000
   O    108.45000000    55.22000000    12.59000000
   C    110.35000000    56.62000000    14.17000000
   C    111.04000000    56.87000000    12.84000000
   N    111.32000000    58.14000000    12.53000000
   O    111.40000000    55.95000000    12.10000000
   H    108.14000000    55.34000000    15.33000000
   H    110.85000000    54.59000000    14.57000000
   H    110.94000000    57.09000000    14.96000000
   H    109.50000000    57.29000000    14.05000000
   H    110.97000000    58.87000000    13.14000000
   H    111.91000000    58.35000000    11.74000000
   N    109.24000000    53.22000000    13.05000000
   C    109.81000000    52.11000000    13.78000000
   C    108.78000000    51.39000000    14.65000000
   O    108.28000000    51.92000000    15.64000000
   H    108.69000000    52.92000000    12.26000000
   H    110.63000000    52.34000000    14.46000000
   H    110.23000000    51.40000000    13.06000000
   N    108.52000000    50.11000000    14.36000000
   C    107.53000000    49.27000000    15.01000000
   C    108.11000000    47.90000000    15.29000000
   O    108.32000000    47.14000000    14.35000000
   C    106.21000000    49.30000000    14.25000000
   C    105.47000000    50.61000000    14.25000000
   C    104.95000000    51.15000000    15.44000000
   C    105.74000000    51.48000000    13.19000000
   C    104.71000000    52.53000000    15.59000000
   C    105.52000000    52.86000000    13.34000000
   C    104.96000000    53.40000000    14.51000000
   O    104.94000000    54.75000000    14.74000000
   H    108.77000000    49.88000000    13.41000000
   H    107.23000000    49.65000000    15.99000000
   H    105.56000000    48.51000000    14.62000000
   H    106.40000000    48.89000000    13.26000000
   H    104.72000000    50.55000000    16.30000000
   H    106.13000000    51.00000000    12.31000000
   H    104.35000000    52.83000000    16.56000000
   H    105.77000000    53.43000000    12.46000000
   H    105.16000000    55.26000000    13.96000000
   N    108.44000000    47.61000000    16.56000000
   C    108.90000000    46.31000000    16.99000000
   C    107.80000000    45.27000000    17.16000000
   O    107.96000000    44.08000000    17.40000000
   C    109.84000000    46.52000000    18.18000000
   C    109.39000000    47.08000000    19.53000000
   C    110.69000000    45.29000000    18.47000000
   C    108.23000000    46.37000000    20.22000000
   H    108.39000000    48.33000000    17.26000000
   H    109.54000000    45.99000000    16.16000000
   H    110.52000000    47.27000000    17.79000000
   H    109.00000000    48.07000000    19.28000000
   H    110.20000000    47.18000000    20.26000000
   H    110.25000000    44.43000000    18.97000000
   H    111.19000000    44.93000000    17.57000000
   H    111.53000000    45.65000000    19.07000000
   H    107.90000000    46.95000000    21.08000000
   H    107.40000000    46.26000000    19.53000000
   H    108.68000000    45.44000000    20.58000000
   N    106.59000000    45.61000000    16.71000000
   C    105.55000000    44.65000000    16.42000000
   C    104.92000000    43.97000000    17.63000000
   O    104.32000000    42.90000000    17.56000000
   C    104.36000000    45.34000000    15.76000000
   O    104.80000000    46.14000000    14.69000000
   H    106.40000000    46.57000000    16.45000000
   H    105.87000000    43.82000000    15.78000000
   H    103.80000000    45.94000000    16.48000000
   H    103.73000000    44.58000000    15.32000000
   H    104.25000000    46.93000000    14.69000000
   N    105.12000000    44.59000000    18.80000000
   C    104.80000000    44.14000000    20.14000000
   C    104.49000000    45.27000000    21.10000000
   O    105.35000000    46.07000000    21.48000000
   C    105.95000000    43.25000000    20.60000000
   H    105.53000000    45.51000000    18.67000000
   H    103.92000000    43.51000000    20.04000000
   H    106.94000000    43.69000000    20.50000000
   H    105.80000000    43.08000000    21.67000000
   H    105.96000000    42.24000000    20.19000000
   N    103.22000000    45.32000000    21.52000000
   C    102.76000000    45.94000000    22.74000000
   C    102.97000000    47.43000000    22.96000000
   O    102.93000000    47.92000000    24.09000000
   C    103.21000000    45.02000000    23.88000000
   H    102.61000000    44.60000000    21.16000000
   H    101.67000000    45.93000000    22.62000000
   H    104.29000000    45.11000000    23.94000000
   H    102.84000000    45.43000000    24.82000000
   H    102.91000000    44.01000000    23.62000000
   N    103.13000000    48.18000000    21.87000000
   C    103.32000000    49.62000000    21.76000000
   C    101.95000000    50.27000000    21.65000000
   O    101.69000000    51.36000000    22.16000000
   C    104.25000000    49.99000000    20.61000000
   C    105.70000000    49.58000000    20.81000000
   C    106.61000000    50.23000000    19.77000000
   O    106.32000000    50.25000000    18.55000000
   O    107.72000000    50.70000000    20.09000000
   H    103.17000000    47.65000000    21.02000000
   H    103.71000000    50.01000000    22.70000000
   H    104.15000000    51.06000000    20.41000000
   H    103.96000000    49.52000000    19.67000000
   H    105.77000000    48.52000000    20.57000000
   H    106.03000000    49.82000000    21.82000000
   N    100.99000000    49.70000000    20.91000000
   C     99.65000000    50.25000000    20.79000000
   H     98.97800000    49.71700000    21.46200000
   H     99.66500000    51.30700000    21.05500000
   H     99.30100000    50.13700000    19.76400000
   H    101.27000000    49.00000000    20.25000000
  Ca    106.63600000    54.81000000    19.53000000
   O    106.69600000    52.74000000    17.89000000
   H    107.12600000    52.81000000    17.04000000
   H    106.60600000    51.80000000    18.04000000
   O    104.00600000    54.42000000    20.00000000
   H    103.26600000    54.53000000    19.41000000
   H    103.60600000    54.35000000    20.87000000
   O    106.08600000    55.71000000    22.10000000
   H    106.11600000    55.16000000    22.88000000
   H    105.48600000    56.42000000    22.34000000
   O    105.19600000    55.63000000    17.53000000
   H    105.02600000    56.57000000    17.45000000
   H    105.13600000    55.30000000    16.63000000
   O    106.06600000    52.96000000    21.35000000
   H    106.65600000    52.45000000    21.91000000
   H    105.25600000    53.04000000    21.85000000
   O    108.71600000    53.30000000    19.90000000
   H    108.22600000    52.48000000    19.95000000
   H    109.60600000    53.06000000    20.15000000

Ca 1.70



