%chk=loop3.cluster97.chk
%nprocshared=48
%mem=10GB
%nosave
#b3lyp/svp scf=(tight,noincore) Test 
#IOP(5/87=12) Density=Current Pop=(MK,readradii) iop(6/33=2) iop(6/42=6)

loop3.cluster97 

   0  1 
   C     64.18000000    21.05000000     6.91000000
   C     64.84000000    21.22000000     5.55000000
   O     64.51000000    20.50000000     4.61000000
   H     63.16900000    20.66600000     6.77700000
   H     64.75900000    20.34800000     7.51000000
   H     64.13800000    22.01400000     7.41700000
   N     65.66000000    22.25000000     5.35000000
   C     66.33000000    22.48000000     4.09000000
   C     66.20000000    23.97000000     3.83000000
   O     65.90000000    24.76000000     4.73000000
   C     67.78000000    22.02000000     4.11000000
   C     68.67000000    22.58000000     5.22000000
   O     69.32000000    21.79000000     5.94000000
   O     68.82000000    23.80000000     5.39000000
   H     65.87000000    22.89000000     6.11000000
   H     65.81000000    21.90000000     3.32000000
   H     68.32000000    22.12000000     3.17000000
   H     67.71000000    20.95000000     4.30000000
   N     66.28000000    24.36000000     2.55000000
   C     65.88000000    25.58000000     1.88000000
   C     66.55000000    26.90000000     2.22000000
   O     66.87000000    27.53000000     1.22000000
   C     64.35000000    25.59000000     1.84000000
   C     63.90000000    26.63000000     0.83000000
   C     62.41000000    26.84000000     0.57000000
   C     62.20000000    27.50000000    -0.79000000
   N     60.77000000    27.35000000    -1.11000000
   H     66.58000000    23.63000000     1.92000000
   H     66.14000000    25.43000000     0.83000000
   H     63.99000000    25.80000000     2.85000000
   H     64.03000000    24.59000000     1.53000000
   H     64.31000000    26.27000000    -0.11000000
   H     64.35000000    27.59000000     1.07000000
   H     62.07000000    27.46000000     1.40000000
   H     61.77000000    25.97000000     0.74000000
   H     62.85000000    27.02000000    -1.53000000
   H     62.52000000    28.54000000    -0.86000000
   H     60.51000000    26.39000000    -1.28000000
   H     60.16000000    27.72000000    -0.39000000
   H     60.49000000    27.92000000    -1.89000000
   N     66.79000000    27.17000000     3.51000000
   C     67.38000000    28.37000000     4.07000000
   C     68.15000000    28.02000000     5.34000000
   O     67.77000000    27.19000000     6.15000000
   C     66.30000000    29.39000000     4.40000000
   C     66.91000000    30.73000000     4.80000000
   O     67.47000000    31.38000000     3.88000000
   O     66.86000000    31.11000000     5.99000000
   H     66.65000000    26.48000000     4.23000000
   H     68.14000000    28.80000000     3.42000000
   H     65.68000000    28.90000000     5.15000000
   H     65.81000000    29.60000000     3.45000000
   N     69.11000000    28.89000000     5.68000000
   C     69.92000000    28.81000000     6.88000000
   C     69.20000000    29.16000000     8.18000000
   O     68.08000000    29.66000000     8.24000000
   H     69.30000000    29.67000000     5.06000000
   H     70.84000000    29.39000000     6.90000000
   H     70.21000000    27.77000000     7.02000000
   N     69.82000000    28.78000000     9.29000000
   C     69.28000000    28.94000000    10.63000000
   C     70.17000000    29.66000000    11.62000000
   O     69.72000000    30.41000000    12.48000000
   C     68.87000000    27.57000000    11.17000000
   C     68.14000000    26.69000000    10.16000000
   N     68.68000000    25.53000000     9.79000000
   O     66.99000000    26.94000000     9.82000000
   H     70.76000000    28.43000000     9.15000000
   H     68.38000000    29.56000000    10.55000000
   H     68.26000000    27.77000000    12.06000000
   H     69.81000000    27.08000000    11.40000000
   H     69.59000000    25.29000000    10.16000000
   H     68.22000000    25.06000000     9.02000000
   N     71.49000000    29.48000000    11.51000000
   C     72.53000000    29.96000000    12.40000000
   C     72.32000000    29.65000000    13.87000000
   O     71.91000000    28.57000000    14.28000000
   H     71.78000000    28.89000000    10.74000000
   H     72.51000000    31.03000000    12.20000000
   H     73.51000000    29.57000000    12.13000000
   N     72.54000000    30.71000000    14.66000000
   C     72.39000000    30.85000000    16.09000000
   C     70.92000000    30.75000000    16.46000000
   O     70.58000000    30.97000000    17.62000000
   C     73.33000000    29.93000000    16.87000000
   C     74.79000000    30.04000000    16.50000000
   C     75.42000000    29.13000000    15.65000000
   C     75.41000000    31.25000000    16.84000000
   C     76.73000000    29.38000000    15.24000000
   C     76.70000000    31.55000000    16.39000000
   C     77.38000000    30.56000000    15.64000000
   O     78.67000000    30.82000000    15.29000000
   H     73.01000000    31.48000000    14.20000000
   H     72.61000000    31.88000000    16.37000000
   H     72.99000000    28.90000000    16.82000000
   H     73.23000000    30.21000000    17.92000000
   H     74.88000000    28.22000000    15.40000000
   H     74.91000000    32.09000000    17.29000000
   H     77.31000000    28.70000000    14.62000000
   H     77.23000000    32.44000000    16.71000000
   H     78.91000000    31.74000000    15.42000000
   N     70.01000000    30.42000000    15.54000000
   C     68.57000000    30.23000000    15.62000000
   C     67.71000000    31.43000000    15.99000000
   O     66.66000000    31.68000000    15.42000000
   C     68.27000000    28.95000000    16.40000000
   C     68.61000000    27.62000000    15.72000000
   C     66.78000000    28.82000000    16.65000000
   C     68.70000000    26.35000000    16.55000000
   H     70.44000000    30.18000000    14.66000000
   H     68.24000000    29.95000000    14.62000000
   H     68.69000000    28.99000000    17.40000000
   H     69.53000000    27.74000000    15.14000000
   H     67.90000000    27.42000000    14.93000000
   H     66.38000000    29.61000000    17.29000000
   H     66.17000000    28.76000000    15.75000000
   H     66.65000000    27.92000000    17.26000000
   H     69.50000000    26.53000000    17.27000000
   H     67.80000000    26.05000000    17.09000000
   H     69.04000000    25.54000000    15.90000000
   N     68.33000000    32.33000000    16.77000000
   C     67.86000000    33.67000000    17.06000000
   C     66.53000000    33.77000000    17.78000000
   O     65.86000000    34.80000000    17.84000000
   C     68.94000000    34.54000000    17.68000000
   O     70.18000000    34.02000000    17.23000000
   H     69.30000000    32.17000000    17.02000000
   H     67.72000000    34.08000000    16.06000000
   H     68.90000000    34.34000000    18.75000000
   H     68.79000000    35.61000000    17.49000000
   H     70.21000000    34.29000000    16.31000000
   N     66.10000000    32.63000000    18.33000000
   C     64.77000000    32.36000000    18.83000000
   C     63.66000000    32.73000000    17.86000000
   O     62.64000000    33.28000000    18.27000000
   C     64.62000000    32.75000000    20.30000000
   H     66.72000000    31.84000000    18.23000000
   H     64.71000000    31.27000000    18.88000000
   H     64.87000000    33.78000000    20.56000000
   H     63.61000000    32.57000000    20.66000000
   H     65.31000000    32.06000000    20.79000000
   N     63.68000000    32.47000000    16.55000000
   C     62.67000000    32.75000000    15.55000000
   C     62.23000000    31.48000000    14.84000000
   O     62.98000000    30.51000000    14.89000000
   C     63.23000000    33.68000000    14.47000000
   H     64.57000000    32.19000000    16.17000000
   H     61.83000000    33.31000000    15.96000000
   H     64.05000000    33.16000000    13.99000000
   H     62.53000000    33.86000000    13.66000000
   H     63.56000000    34.64000000    14.87000000
   N     61.17000000    31.46000000    14.03000000
   C     60.70000000    30.30000000    13.30000000
   C     60.29000000    29.10000000    14.14000000
   O     60.45000000    27.95000000    13.73000000
   C     61.68000000    29.96000000    12.18000000
   C     62.12000000    31.21000000    11.42000000
   C     62.19000000    30.93000000     9.92000000
   O     61.13000000    30.97000000     9.25000000
   O     63.32000000    30.71000000     9.44000000
   H     60.58000000    32.28000000    14.01000000
   H     59.79000000    30.70000000    12.85000000
   H     61.17000000    29.32000000    11.46000000
   H     62.52000000    29.38000000    12.57000000
   H     63.11000000    31.51000000    11.77000000
   H     61.43000000    32.04000000    11.53000000
   N     59.81000000    29.38000000    15.36000000
   C     59.50000000    28.40000000    16.38000000
   H     58.48200000    28.03800000    16.23700000
   H     60.19600000    27.56500000    16.30600000
   H     59.58700000    28.86000000    17.36500000
   H     59.74000000    30.35000000    15.62000000
  Ca     65.76000000    30.77000000     8.24000000
   O     68.11000000    32.46000000     8.53000000
   H     67.92000000    33.36000000     8.80000000
   H     69.04000000    32.34000000     8.73000000
   O     66.02000000    29.32000000    10.70000000
   H     65.90000000    28.37000000    10.65000000
   H     65.70000000    29.56000000    11.57000000
   O     65.71000000    32.57000000    10.53000000
   H     65.31000000    33.44000000    10.44000000
   H     65.23000000    32.16000000    11.25000000
   O     64.94000000    33.35000000     7.55000000
   H     64.34000000    33.79000000     8.15000000
   H     64.50000000    33.39000000     6.70000000
   O     63.60000000    30.10000000     6.48000000
   H     63.36000000    29.41000000     5.87000000
   H     62.78000000    30.33000000     6.92000000
   O     65.63000000    28.11000000     7.96000000
   H     65.99000000    27.60000000     8.68000000
   H     65.29000000    27.46000000     7.35000000

Ca 1.70



