%chk=loop2.cluster196.chk
%nprocshared=48
%mem=10GB
%nosave
#b3lyp/svp scf=(tight,noincore) Test 
#IOP(5/87=12) Density=Current Pop=(MK,readradii) iop(6/33=2) iop(6/42=6)

loop2.cluster196 

   -2  1 
   C     51.54000000    76.46000000    27.37000000
   C     51.46000000    75.06000000    27.95000000
   O     50.50000000    74.76000000    28.66000000
   H     52.57300000    76.68300000    27.10200000
   H     50.91300000    76.52200000    26.48100000
   H     51.19400000    77.18100000    28.11100000
   N     52.37000000    74.14000000    27.64000000
   C     52.29000000    72.78000000    28.13000000
   C     52.69000000    72.67000000    29.60000000
   O     52.01000000    72.02000000    30.39000000
   C     53.14000000    71.84000000    27.28000000
   C     53.37000000    70.44000000    27.84000000
   O     52.32000000    69.78000000    27.99000000
   O     54.51000000    70.01000000    28.11000000
   H     53.06000000    74.32000000    26.93000000
   H     51.25000000    72.48000000    28.04000000
   H     54.15000000    72.24000000    27.22000000
   H     52.69000000    71.71000000    26.29000000
   N     53.73000000    73.40000000    30.01000000
   C     54.44000000    73.33000000    31.27000000
   C     53.59000000    73.57000000    32.51000000
   O     53.89000000    73.19000000    33.64000000
   C     55.23000000    72.02000000    31.28000000
   H     54.18000000    73.90000000    29.26000000
   H     55.20000000    74.12000000    31.20000000
   H     55.80000000    71.91000000    32.20000000
   H     54.55000000    71.18000000    31.23000000
   H     55.96000000    72.01000000    30.47000000
   N     52.55000000    74.37000000    32.28000000
   C     51.64000000    74.70000000    33.36000000
   C     50.90000000    73.49000000    33.91000000
   O     50.31000000    73.54000000    34.99000000
   C     52.21000000    75.66000000    34.40000000
   C     53.03000000    76.76000000    33.74000000
   O     54.24000000    76.87000000    34.05000000
   O     52.43000000    77.53000000    32.97000000
   H     52.48000000    74.87000000    31.41000000
   H     50.88000000    75.35000000    32.92000000
   H     52.84000000    75.14000000    35.13000000
   H     51.31000000    76.03000000    34.90000000
   N     50.77000000    72.42000000    33.13000000
   C     50.05000000    71.20000000    33.44000000
   C     48.57000000    71.53000000    33.58000000
   O     47.90000000    72.34000000    32.93000000
   H     51.29000000    72.57000000    32.28000000
   H     50.35000000    70.68000000    34.35000000
   H     50.21000000    70.49000000    32.63000000
   N     47.94000000    70.57000000    34.26000000
   C     46.53000000    70.45000000    34.55000000
   C     45.61000000    70.23000000    33.35000000
   O     44.47000000    70.67000000    33.36000000
   C     46.13000000    71.54000000    35.54000000
   C     46.73000000    71.39000000    36.93000000
   N     46.59000000    70.31000000    37.70000000
   O     47.45000000    72.28000000    37.39000000
   H     48.56000000    69.89000000    34.68000000
   H     46.40000000    69.50000000    35.05000000
   H     45.05000000    71.47000000    35.67000000
   H     46.36000000    72.56000000    35.23000000
   H     45.99000000    69.52000000    37.52000000
   H     47.12000000    70.32000000    38.57000000
   N     46.13000000    69.71000000    32.23000000
   C     45.31000000    69.34000000    31.10000000
   C     45.60000000    70.16000000    29.85000000
   O     45.37000000    69.67000000    28.75000000
   H     47.13000000    69.58000000    32.26000000
   H     44.26000000    69.19000000    31.33000000
   H     45.69000000    68.34000000    30.88000000
   N     45.95000000    71.43000000    30.08000000
   C     46.27000000    72.51000000    29.16000000
   C     45.30000000    73.66000000    29.36000000
   O     44.71000000    73.84000000    30.43000000
   C     47.73000000    72.93000000    29.31000000
   C     48.68000000    71.81000000    29.73000000
   O     48.24000000    73.32000000    28.05000000
   H     46.07000000    71.69000000    31.05000000
   H     46.18000000    72.17000000    28.13000000
   H     47.72000000    73.81000000    29.96000000
   H     48.95000000    73.96000000    28.16000000
   H     48.48000000    70.87000000    29.21000000
   H     49.70000000    72.17000000    29.57000000
   H     48.55000000    71.69000000    30.80000000
   N     45.23000000    74.56000000    28.38000000
   C     44.90000000    75.97000000    28.34000000
   C     45.70000000    76.78000000    29.36000000
   O     46.82000000    76.48000000    29.76000000
   C     44.94000000    76.47000000    26.90000000
   C     46.32000000    76.18000000    26.31000000
   C     43.93000000    75.74000000    26.03000000
   C     46.55000000    76.98000000    25.03000000
   H     45.69000000    74.21000000    27.55000000
   H     43.92000000    76.01000000    28.82000000
   H     44.70000000    77.53000000    26.84000000
   H     46.49000000    75.13000000    26.09000000
   H     47.14000000    76.41000000    26.99000000
   H     43.97000000    74.68000000    26.26000000
   H     42.93000000    76.08000000    26.33000000
   H     44.01000000    76.02000000    24.98000000
   H     46.39000000    78.04000000    25.25000000
   H     47.59000000    76.93000000    24.72000000
   H     45.92000000    76.59000000    24.23000000
   N     45.08000000    77.90000000    29.75000000
   C     45.66000000    78.68000000    30.82000000
   C     45.15000000    78.32000000    32.21000000
   O     45.07000000    79.09000000    33.16000000
   C     45.48000000    80.16000000    30.50000000
   C     46.27000000    81.10000000    31.40000000
   O     47.47000000    80.90000000    31.67000000
   O     45.76000000    82.18000000    31.77000000
   H     44.19000000    78.17000000    29.38000000
   H     46.73000000    78.48000000    30.85000000
   H     44.43000000    80.41000000    30.66000000
   H     45.68000000    80.36000000    29.45000000
   N     44.74000000    77.06000000    32.41000000
   C     44.14000000    76.52000000    33.61000000
   C     42.71000000    76.93000000    33.94000000
   O     42.54000000    77.66000000    34.91000000
   C     44.37000000    75.02000000    33.72000000
   C     44.01000000    74.49000000    35.09000000
   C     42.90000000    73.64000000    35.08000000
   C     44.60000000    74.88000000    36.30000000
   C     42.46000000    73.02000000    36.26000000
   C     44.12000000    74.27000000    37.46000000
   C     43.11000000    73.30000000    37.47000000
   H     44.88000000    76.40000000    31.66000000
   H     44.70000000    76.93000000    34.46000000
   H     45.44000000    74.82000000    33.68000000
   H     43.92000000    74.35000000    32.99000000
   H     42.38000000    73.50000000    34.14000000
   H     45.34000000    75.66000000    36.34000000
   H     41.55000000    72.47000000    36.37000000
   H     44.68000000    74.56000000    38.34000000
   H     42.78000000    72.87000000    38.41000000
   N     41.55000000    76.61000000    33.36000000
   C     41.40000000    75.94000000    32.08000000
   C     41.22000000    76.88000000    30.90000000
   O     41.31000000    76.43000000    29.77000000
   C     40.18000000    75.02000000    32.16000000
   C     39.29000000    75.96000000    32.96000000
   C     40.24000000    76.62000000    33.96000000
   H     42.27000000    75.31000000    31.88000000
   H     39.73000000    74.81000000    31.19000000
   H     40.32000000    74.12000000    32.76000000
   H     38.85000000    76.75000000    32.35000000
   H     38.52000000    75.41000000    33.51000000
   H     39.88000000    77.60000000    34.29000000
   H     40.32000000    75.93000000    34.80000000
   N     40.97000000    78.18000000    31.12000000
   C     40.54000000    79.15000000    30.14000000
   C     41.45000000    79.41000000    28.95000000
   O     42.64000000    79.12000000    29.06000000
   C     40.35000000    80.45000000    30.91000000
   C     41.43000000    80.90000000    31.89000000
   C     41.17000000    82.37000000    32.22000000
   O     41.43000000    83.25000000    31.36000000
   O     40.71000000    82.75000000    33.31000000
   H     40.95000000    78.50000000    32.08000000
   H     39.57000000    78.82000000    29.77000000
   H     39.39000000    80.30000000    31.43000000
   H     40.22000000    81.24000000    30.18000000
   H     42.43000000    80.86000000    31.48000000
   H     41.32000000    80.39000000    32.85000000
   N     40.85000000    79.98000000    27.90000000
   C     41.56000000    80.33000000    26.69000000
   H     42.56000000    79.89600000    26.71800000
   H     41.02000000    79.94200000    25.82600000
   H     41.63700000    81.41500000    26.61400000
   H     39.84000000    79.96000000    27.89000000
  Ca     49.59000000    81.13000000    33.26000000
   O     49.80000000    78.34000000    32.18000000
   H     50.68000000    78.22000000    32.56000000
   H     49.64000000    77.54000000    31.69000000
   O     47.87000000    79.33000000    34.35000000
   H     46.92000000    79.39000000    34.23000000
   H     48.02000000    78.43000000    34.63000000
   O     47.90000000    82.93000000    34.05000000
   H     46.95000000    82.90000000    34.13000000
   H     48.17000000    83.64000000    34.63000000
   O     51.77000000    79.77000000    34.01000000
   H     52.15000000    79.74000000    34.88000000
   H     52.13000000    79.01000000    33.56000000
   O     49.81000000    81.26000000    36.00000000
   H     49.32000000    81.82000000    36.60000000
   H     50.52000000    80.89000000    36.52000000
   O     51.45000000    81.18000000    31.15000000
   H     51.66000000    80.78000000    30.31000000
   H     52.09000000    81.88000000    31.25000000
   O     51.58000000    82.87000000    33.93000000
   H     52.51000000    83.09000000    33.85000000
   H     51.17000000    83.66000000    34.28000000

Ca 1.70



