%chk=loop1.cluster91.chk
%nprocshared=48
%mem=10GB
%nosave
#b3lyp/svp scf=(tight,noincore) Test 
#IOP(5/87=12) Density=Current Pop=(MK,readradii) iop(6/33=2) iop(6/42=6)

loop1.cluster91 

   0  1 
   C     93.52000000    87.85000000    40.10000000
   C     94.84000000    87.47000000    39.43000000
   O     94.94000000    87.44000000    38.21000000
   H     92.73300000    87.17700000    39.75900000
   H     93.62400000    87.76800000    41.18200000
   H     93.26000000    88.87500000    39.83600000
   N     95.82000000    87.04000000    40.22000000
   C     97.20000000    86.95000000    39.81000000
   C     97.60000000    85.62000000    39.18000000
   O     98.69000000    85.48000000    38.65000000
   C     98.15000000    87.30000000    40.96000000
   C     97.89000000    86.52000000    42.24000000
   O     98.68000000    85.60000000    42.55000000
   O     97.06000000    86.92000000    43.07000000
   H     95.73000000    86.91000000    41.22000000
   H     97.22000000    87.79000000    39.11000000
   H     98.07000000    88.38000000    40.99000000
   H     99.16000000    86.98000000    40.67000000
   N     96.69000000    84.64000000    39.23000000
   C     96.92000000    83.24000000    38.98000000
   C     96.69000000    82.84000000    37.53000000
   O     95.62000000    83.07000000    36.96000000
   C     96.03000000    82.36000000    39.85000000
   C     96.00000000    82.67000000    41.34000000
   C     97.30000000    82.45000000    42.12000000
   C     97.22000000    82.55000000    43.64000000
   N     97.03000000    83.92000000    44.14000000
   H     95.77000000    84.85000000    39.60000000
   H     97.94000000    83.10000000    39.34000000
   H     96.47000000    81.37000000    39.73000000
   H     95.04000000    82.47000000    39.42000000
   H     95.31000000    81.91000000    41.71000000
   H     95.54000000    83.65000000    41.43000000
   H     98.05000000    83.13000000    41.72000000
   H     97.63000000    81.44000000    41.89000000
   H     98.21000000    82.23000000    43.97000000
   H     96.54000000    81.84000000    44.11000000
   H     97.54000000    84.56000000    43.54000000
   H     96.10000000    84.31000000    44.20000000
   H     97.54000000    83.98000000    45.01000000
   N     97.66000000    82.23000000    36.84000000
   C     99.06000000    82.16000000    37.19000000
   C     99.78000000    82.11000000    35.84000000
   O    100.20000000    81.01000000    35.48000000
   C     99.13000000    80.87000000    38.00000000
   C    100.55000000    80.57000000    38.47000000
   O    100.79000000    79.40000000    38.85000000
   O    101.45000000    81.44000000    38.55000000
   H     97.43000000    81.72000000    36.00000000
   H     99.43000000    83.05000000    37.70000000
   H     98.93000000    80.00000000    37.38000000
   H     98.44000000    80.86000000    38.85000000
   N    100.03000000    83.28000000    35.27000000
   C     99.23000000    84.48000000    35.43000000
   C     99.67000000    85.68000000    34.61000000
   O    100.82000000    85.78000000    34.20000000
   H    100.82000000    83.34000000    34.64000000
   H     99.27000000    84.83000000    36.46000000
   H     98.19000000    84.22000000    35.23000000
   N     98.78000000    86.63000000    34.31000000
   C     97.56000000    86.89000000    35.05000000
   C     97.47000000    88.37000000    35.39000000
   O     97.96000000    89.15000000    34.58000000
   C     96.35000000    86.56000000    34.18000000
   C     96.30000000    85.20000000    33.49000000
   O     95.76000000    84.31000000    34.17000000
   O     96.69000000    85.05000000    32.31000000
   H     98.97000000    87.27000000    33.55000000
   H     97.53000000    86.32000000    35.98000000
   H     96.25000000    87.32000000    33.40000000
   H     95.47000000    86.66000000    34.81000000
   N     96.86000000    88.81000000    36.50000000
   C     96.72000000    90.17000000    36.96000000
   C     95.46000000    90.93000000    36.58000000
   O     95.55000000    92.15000000    36.41000000
   H     96.43000000    88.03000000    36.97000000
   H     97.55000000    90.79000000    36.60000000
   H     96.70000000    90.12000000    38.05000000
   N     94.38000000    90.21000000    36.30000000
   C     93.17000000    90.70000000    35.65000000
   C     92.01000000    89.72000000    35.72000000
   O     92.15000000    88.52000000    35.51000000
   C     93.38000000    91.13000000    34.20000000
   C     94.09000000    90.06000000    33.37000000
   O     94.13000000    92.32000000    34.16000000
   H     94.43000000    89.23000000    36.55000000
   H     92.81000000    91.60000000    36.14000000
   H     92.38000000    91.33000000    33.82000000
   H     94.82000000    92.07000000    34.78000000
   H     93.67000000    89.06000000    33.44000000
   H     94.13000000    90.27000000    32.30000000
   H     95.15000000    90.05000000    33.61000000
   N     90.79000000    90.26000000    35.78000000
   C     89.55000000    89.51000000    35.81000000
   C     88.70000000    89.66000000    34.56000000
   O     88.20000000    90.73000000    34.23000000
   C     88.71000000    89.71000000    37.07000000
   C     87.43000000    88.90000000    37.24000000
   C     88.43000000    91.18000000    37.37000000
   C     87.64000000    87.39000000    37.22000000
   H     90.73000000    91.24000000    35.99000000
   H     89.85000000    88.47000000    35.83000000
   H     89.36000000    89.27000000    37.83000000
   H     86.76000000    89.06000000    36.39000000
   H     86.87000000    89.18000000    38.14000000
   H     88.19000000    91.14000000    38.44000000
   H     89.32000000    91.80000000    37.27000000
   H     87.67000000    91.70000000    36.80000000
   H     86.80000000    86.79000000    37.57000000
   H     87.92000000    87.00000000    36.24000000
   H     88.45000000    87.18000000    37.91000000
   N     88.43000000    88.53000000    33.90000000
   C     87.87000000    88.34000000    32.58000000
   C     86.87000000    87.20000000    32.53000000
   O     86.03000000    87.29000000    31.63000000
   C     88.93000000    88.07000000    31.51000000
   C     90.03000000    87.04000000    31.75000000
   O     89.55000000    89.27000000    31.12000000
   H     88.96000000    87.73000000    34.23000000
   H     87.32000000    89.22000000    32.26000000
   H     88.47000000    87.71000000    30.59000000
   H     88.92000000    89.83000000    30.66000000
   H     90.77000000    87.24000000    32.53000000
   H     89.64000000    86.07000000    32.05000000
   H     90.58000000    86.94000000    30.82000000
   N     86.81000000    86.30000000    33.52000000
   C     85.87000000    85.21000000    33.67000000
   C     85.97000000    84.17000000    32.56000000
   O     86.62000000    84.40000000    31.55000000
   C     84.44000000    85.70000000    33.89000000
   C     84.44000000    86.90000000    34.82000000
   O     83.84000000    84.62000000    34.56000000
   H     87.48000000    86.36000000    34.27000000
   H     86.21000000    84.68000000    34.57000000
   H     83.91000000    85.83000000    32.95000000
   H     83.20000000    84.98000000    35.18000000
   H     85.02000000    87.76000000    34.47000000
   H     83.42000000    87.24000000    34.97000000
   H     84.69000000    86.64000000    35.85000000
   N     85.42000000    82.99000000    32.87000000
   C     85.33000000    81.83000000    32.01000000
   C     86.35000000    80.71000000    32.21000000
   O     86.64000000    80.09000000    31.20000000
   C     83.94000000    81.23000000    32.22000000
   C     83.02000000    81.55000000    31.05000000
   C     82.98000000    83.05000000    30.75000000
   C     82.09000000    83.20000000    29.52000000
   N     81.97000000    84.63000000    29.19000000
   H     84.88000000    82.95000000    33.72000000
   H     85.41000000    82.18000000    30.98000000
   H     83.44000000    81.72000000    33.06000000
   H     84.03000000    80.15000000    32.39000000
   H     81.99000000    81.26000000    31.28000000
   H     83.39000000    80.97000000    30.21000000
   H     83.98000000    83.32000000    30.42000000
   H     82.62000000    83.46000000    31.70000000
   H     81.10000000    82.77000000    29.67000000
   H     82.61000000    82.69000000    28.71000000
   H     81.90000000    84.74000000    28.19000000
   H     81.13000000    85.01000000    29.61000000
   H     82.77000000    85.15000000    29.52000000
   N     86.99000000    80.38000000    33.33000000
   C     86.94000000    80.92000000    34.68000000
   C     85.53000000    81.13000000    35.21000000
   O     85.20000000    82.13000000    35.83000000
   C     87.87000000    82.12000000    34.85000000
   C     89.32000000    81.80000000    34.49000000
   C     90.18000000    83.06000000    34.54000000
   O     90.91000000    83.27000000    35.53000000
   O     90.12000000    83.85000000    33.57000000
   H     87.67000000    79.64000000    33.20000000
   H     87.38000000    80.17000000    35.33000000
   H     87.79000000    82.50000000    35.87000000
   H     87.42000000    82.91000000    34.25000000
   H     89.38000000    81.33000000    33.51000000
   H     89.69000000    81.06000000    35.20000000
   N     84.72000000    80.07000000    35.20000000
   C     83.42000000    80.03000000    35.83000000
   H     82.68000000    79.67700000    35.11200000
   H     83.45000000    79.35200000    36.68300000
   H     83.14900000    81.03000000    36.16900000
   H     85.05000000    79.23000000    34.74000000
  Ca     93.57000000    83.70000000    35.39000000
   O     92.68000000    85.09000000    33.48000000
   H     91.73000000    85.10000000    33.42000000
   H     92.97000000    85.64000000    32.74000000
   O     93.04000000    82.40000000    32.98000000
   H     93.52000000    82.02000000    32.24000000
   H     92.36000000    82.94000000    32.57000000
   O     93.84000000    81.13000000    35.52000000
   H     94.38000000    80.60000000    36.11000000
   H     93.36000000    80.48000000    35.00000000
   O     93.21000000    86.27000000    36.32000000
   H     92.83000000    87.08000000    35.99000000
   H     93.74000000    86.54000000    37.08000000
   O     92.88000000    83.63000000    37.86000000
   H     93.06000000    84.14000000    38.65000000
   H     92.19000000    83.01000000    38.12000000

Ca 1.70



