%chk=loop3.cluster92.chk
%nprocshared=48
%mem=10GB
%nosave
#b3lyp/svp scf=(tight,noincore) Test 
#IOP(5/87=12) Density=Current Pop=(MK,readradii) iop(6/33=2) iop(6/42=6)

loop3.cluster92 

   0  1 
   C     86.28000000    74.18000000    28.18000000
   C     85.72000000    73.30000000    29.29000000
   O     84.55000000    73.37000000    29.65000000
   H     87.29200000    73.85700000    27.93600000
   H     85.64900000    74.09500000    27.29500000
   H     86.30100000    75.21700000    28.51400000
   N     86.47000000    72.31000000    29.78000000
   C     86.05000000    71.50000000    30.91000000
   C     86.31000000    72.16000000    32.26000000
   O     85.80000000    71.66000000    33.26000000
   C     86.89000000    70.22000000    30.85000000
   C     88.41000000    70.33000000    30.88000000
   O     89.04000000    71.36000000    30.58000000
   O     89.10000000    69.33000000    31.16000000
   H     87.46000000    72.40000000    29.63000000
   H     85.01000000    71.16000000    30.96000000
   H     86.55000000    69.63000000    30.00000000
   H     86.51000000    69.70000000    31.73000000
   N     87.12000000    73.22000000    32.34000000
   C     87.35000000    74.01000000    33.53000000
   C     88.09000000    73.20000000    34.58000000
   O     89.02000000    72.44000000    34.31000000
   C     88.07000000    75.28000000    33.07000000
   C     87.18000000    76.18000000    32.21000000
   C     88.05000000    77.39000000    31.90000000
   C     87.50000000    78.01000000    30.63000000
   N     88.33000000    79.05000000    30.00000000
   H     87.56000000    73.47000000    31.47000000
   H     86.40000000    74.33000000    33.96000000
   H     89.03000000    75.05000000    32.60000000
   H     88.18000000    75.86000000    33.98000000
   H     86.26000000    76.51000000    32.71000000
   H     86.87000000    75.72000000    31.28000000
   H     89.08000000    77.09000000    31.71000000
   H     88.10000000    78.10000000    32.73000000
   H     86.50000000    78.37000000    30.88000000
   H     87.37000000    77.26000000    29.85000000
   H     89.04000000    78.66000000    29.39000000
   H     87.86000000    79.69000000    29.36000000
   H     88.88000000    79.52000000    30.70000000
   N     87.63000000    73.23000000    35.84000000
   C     88.02000000    72.31000000    36.88000000
   C     87.38000000    70.93000000    36.80000000
   O     87.62000000    70.16000000    37.73000000
   C     87.98000000    72.98000000    38.25000000
   C     86.61000000    73.58000000    38.55000000
   O     86.53000000    74.83000000    38.53000000
   O     85.69000000    72.83000000    38.94000000
   H     87.01000000    73.99000000    36.07000000
   H     89.06000000    72.05000000    36.72000000
   H     88.81000000    73.68000000    38.29000000
   H     88.20000000    72.23000000    39.01000000
   N     86.64000000    70.63000000    35.73000000
   C     86.01000000    69.35000000    35.46000000
   C     86.73000000    68.31000000    34.62000000
   O     87.92000000    68.46000000    34.33000000
   H     86.55000000    71.34000000    35.02000000
   H     85.22000000    69.57000000    34.74000000
   H     85.53000000    68.92000000    36.34000000
   N     86.06000000    67.28000000    34.09000000
   C     84.65000000    67.00000000    34.23000000
   C     84.16000000    66.35000000    32.94000000
   O     84.07000000    65.13000000    32.84000000
   C     84.49000000    66.04000000    35.40000000
   C     85.06000000    66.57000000    36.71000000
   N     86.34000000    66.36000000    37.01000000
   O     84.38000000    67.26000000    37.47000000
   H     86.64000000    66.75000000    33.46000000
   H     84.02000000    67.87000000    34.42000000
   H     85.00000000    65.08000000    35.31000000
   H     83.48000000    65.64000000    35.47000000
   H     86.88000000    65.72000000    36.45000000
   H     86.79000000    66.70000000    37.85000000
   N     83.75000000    67.09000000    31.91000000
   C     83.53000000    68.52000000    31.88000000
   C     82.22000000    69.01000000    32.48000000
   O     82.24000000    70.07000000    33.10000000
   H     83.40000000    66.57000000    31.12000000
   H     83.43000000    68.72000000    30.81000000
   H     84.39000000    69.06000000    32.28000000
   N     81.16000000    68.20000000    32.50000000
   C     80.02000000    68.43000000    33.37000000
   C     80.38000000    68.05000000    34.80000000
   O     80.69000000    66.88000000    35.02000000
   C     78.73000000    67.75000000    32.93000000
   C     78.25000000    68.34000000    31.63000000
   C     77.79000000    69.67000000    31.61000000
   C     78.34000000    67.60000000    30.45000000
   C     77.36000000    70.26000000    30.41000000
   C     77.89000000    68.16000000    29.25000000
   C     77.44000000    69.50000000    29.23000000
   O     77.09000000    70.11000000    28.06000000
   H     81.17000000    67.28000000    32.08000000
   H     79.75000000    69.48000000    33.42000000
   H     77.98000000    68.06000000    33.65000000
   H     78.74000000    66.66000000    32.93000000
   H     77.89000000    70.22000000    32.53000000
   H     78.83000000    66.64000000    30.42000000
   H     77.20000000    71.32000000    30.42000000
   H     77.93000000    67.58000000    28.34000000
   H     77.23000000    69.58000000    27.27000000
   N     80.16000000    68.99000000    35.73000000
   C     80.67000000    68.91000000    37.08000000
   C     79.80000000    68.06000000    37.99000000
   O     80.02000000    67.87000000    39.19000000
   C     80.81000000    70.30000000    37.70000000
   C     81.82000000    71.13000000    36.91000000
   C     79.48000000    71.04000000    37.70000000
   C     83.26000000    70.79000000    37.24000000
   H     79.68000000    69.83000000    35.45000000
   H     81.65000000    68.43000000    37.06000000
   H     81.02000000    70.18000000    38.76000000
   H     81.60000000    72.18000000    37.14000000
   H     81.72000000    71.11000000    35.82000000
   H     79.04000000    71.23000000    36.72000000
   H     78.76000000    70.48000000    38.30000000
   H     79.63000000    72.03000000    38.15000000
   H     83.62000000    71.17000000    38.20000000
   H     83.39000000    69.71000000    37.15000000
   H     83.78000000    71.19000000    36.36000000
   N     78.73000000    67.45000000    37.47000000
   C     77.73000000    66.79000000    38.30000000
   C     76.96000000    67.73000000    39.21000000
   O     76.68000000    68.89000000    38.93000000
   C     76.77000000    65.92000000    37.49000000
   O     76.23000000    64.82000000    38.18000000
   H     78.47000000    67.62000000    36.51000000
   H     78.24000000    66.13000000    39.00000000
   H     77.28000000    65.56000000    36.60000000
   H     75.89000000    66.50000000    37.21000000
   H     76.03000000    64.17000000    37.50000000
   N     76.44000000    67.23000000    40.34000000
   C     75.52000000    67.89000000    41.25000000
   C     76.13000000    68.98000000    42.12000000
   O     77.32000000    68.95000000    42.44000000
   C     75.02000000    66.78000000    42.16000000
   H     76.65000000    66.27000000    40.58000000
   H     74.63000000    68.20000000    40.71000000
   H     74.40000000    67.19000000    42.96000000
   H     74.34000000    66.12000000    41.61000000
   H     75.80000000    66.12000000    42.53000000
   N     75.30000000    69.90000000    42.62000000
   C     75.54000000    70.92000000    43.62000000
   C     76.65000000    71.93000000    43.34000000
   O     77.23000000    72.54000000    44.24000000
   C     75.56000000    70.25000000    44.99000000
   H     74.35000000    69.83000000    42.28000000
   H     74.64000000    71.53000000    43.62000000
   H     75.92000000    71.02000000    45.67000000
   H     74.60000000    69.81000000    45.26000000
   H     76.26000000    69.42000000    45.00000000
   N     76.80000000    72.24000000    42.05000000
   C     77.78000000    73.21000000    41.59000000
   C     77.27000000    74.26000000    40.62000000
   O     77.82000000    75.36000000    40.63000000
   C     79.01000000    72.44000000    41.12000000
   C     80.27000000    73.31000000    41.07000000
   C     81.63000000    72.66000000    40.95000000
   O     82.33000000    72.76000000    39.91000000
   O     82.18000000    72.12000000    41.93000000
   H     76.32000000    71.69000000    41.36000000
   H     78.05000000    73.89000000    42.40000000
   H     78.79000000    71.88000000    40.22000000
   H     79.23000000    71.66000000    41.85000000
   H     80.28000000    73.97000000    41.94000000
   H     80.06000000    74.09000000    40.34000000
   N     76.25000000    74.08000000    39.77000000
   C     75.74000000    75.08000000    38.85000000
   H     74.83500000    75.52500000    39.26300000
   H     76.49100000    75.85600000    38.70300000
   H     75.51000000    74.61100000    37.89400000
   H     75.95000000    73.12000000    39.74000000
  Ca     84.47000000    71.51000000    40.85000000
   O     85.46000000    69.35000000    42.06000000
   H     86.38000000    69.13000000    42.16000000
   H     85.00000000    68.68000000    42.57000000
   O     85.04000000    74.01000000    41.50000000
   H     84.81000000    74.60000000    42.21000000
   H     85.26000000    74.59000000    40.77000000
   O     84.62000000    71.67000000    43.51000000
   H     84.25000000    71.27000000    44.29000000
   H     85.35000000    72.19000000    43.83000000
   O     87.01000000    71.75000000    41.25000000
   H     87.24000000    72.62000000    41.59000000
   H     87.84000000    71.29000000    41.17000000
   O     85.63000000    69.77000000    39.27000000
   H     86.51000000    70.00000000    38.95000000
   H     85.20000000    69.38000000    38.51000000
   O     82.70000000    69.46000000    40.80000000
   H     81.74000000    69.52000000    40.75000000
   H     82.90000000    68.58000000    40.50000000

Ca 1.70



