%chk=loop3.cluster206.chk
%nprocshared=48
%mem=10GB
%nosave
#b3lyp/svp scf=(tight,noincore) Test 
#IOP(5/87=12) Density=Current Pop=(MK,readradii) iop(6/33=2) iop(6/42=6)

loop3.cluster206 

   0  1 
   C    115.02000000    77.46000000    43.08000000
   C    115.87000000    76.31000000    43.58000000
   O    116.03000000    76.13000000    44.78000000
   H    114.09900000    77.51000000    43.66100000
   H    115.57000000    78.39400000    43.19100000
   H    114.77700000    77.30300000    42.02900000
   N    116.39000000    75.51000000    42.64000000
   C    117.37000000    74.48000000    42.92000000
   C    118.64000000    75.10000000    43.47000000
   O    119.22000000    75.94000000    42.79000000
   C    117.48000000    73.64000000    41.66000000
   C    118.53000000    72.55000000    41.84000000
   O    118.30000000    71.43000000    41.34000000
   O    119.63000000    72.67000000    42.43000000
   H    116.18000000    75.80000000    41.70000000
   H    116.94000000    73.90000000    43.74000000
   H    117.74000000    74.29000000    40.82000000
   H    116.48000000    73.25000000    41.49000000
   N    119.05000000    74.68000000    44.67000000
   C    120.19000000    75.29000000    45.33000000
   C    121.53000000    75.17000000    44.62000000
   O    122.57000000    75.60000000    45.11000000
   C    120.16000000    74.90000000    46.80000000
   C    120.51000000    73.44000000    47.08000000
   C    122.01000000    73.20000000    47.15000000
   C    122.32000000    71.80000000    47.68000000
   N    121.93000000    70.76000000    46.72000000
   H    118.56000000    73.91000000    45.10000000
   H    119.98000000    76.36000000    45.25000000
   H    119.17000000    75.04000000    47.23000000
   H    120.86000000    75.50000000    47.39000000
   H    120.14000000    72.79000000    46.29000000
   H    119.95000000    73.18000000    47.98000000
   H    122.39000000    73.89000000    47.91000000
   H    122.51000000    73.41000000    46.20000000
   H    121.75000000    71.56000000    48.58000000
   H    123.38000000    71.66000000    47.86000000
   H    120.94000000    70.70000000    46.58000000
   H    122.27000000    70.91000000    45.78000000
   H    122.36000000    69.88000000    46.96000000
   N    121.65000000    74.44000000    43.50000000
   C    122.90000000    74.20000000    42.82000000
   C    122.71000000    74.28000000    41.31000000
   O    123.70000000    74.49000000    40.61000000
   C    123.51000000    72.86000000    43.20000000
   C    122.61000000    71.64000000    43.08000000
   O    122.46000000    71.01000000    42.01000000
   O    121.87000000    71.35000000    44.05000000
   H    120.78000000    73.97000000    43.31000000
   H    123.63000000    74.98000000    43.07000000
   H    123.88000000    72.92000000    44.22000000
   H    124.36000000    72.63000000    42.55000000
   N    121.47000000    74.15000000    40.82000000
   C    121.10000000    74.25000000    39.43000000
   C    121.37000000    73.01000000    38.58000000
   O    121.34000000    73.14000000    37.36000000
   H    120.68000000    74.05000000    41.44000000
   H    121.60000000    75.11000000    38.98000000
   H    120.02000000    74.38000000    39.29000000
   N    121.76000000    71.91000000    39.21000000
   C    121.81000000    70.62000000    38.54000000
   C    120.69000000    69.68000000    38.95000000
   O    120.34000000    69.54000000    40.12000000
   C    123.16000000    69.92000000    38.66000000
   C    123.32000000    68.77000000    37.68000000
   N    123.97000000    69.19000000    36.59000000
   O    122.82000000    67.65000000    37.76000000
   H    121.89000000    71.89000000    40.21000000
   H    121.73000000    70.77000000    37.46000000
   H    123.25000000    69.46000000    39.65000000
   H    123.91000000    70.67000000    38.45000000
   H    124.20000000    70.16000000    36.43000000
   H    124.15000000    68.52000000    35.86000000
   N    120.07000000    69.05000000    37.94000000
   C    118.87000000    68.25000000    38.04000000
   C    119.06000000    66.79000000    38.40000000
   O    118.06000000    66.18000000    38.79000000
   H    120.32000000    69.28000000    36.99000000
   H    118.47000000    68.24000000    37.02000000
   H    118.11000000    68.70000000    38.68000000
   N    120.30000000    66.29000000    38.44000000
   C    120.67000000    64.92000000    38.73000000
   C    120.66000000    64.64000000    40.23000000
   O    121.31000000    65.32000000    41.02000000
   C    122.03000000    64.75000000    38.06000000
   C    122.42000000    63.30000000    37.87000000
   C    123.21000000    62.68000000    38.84000000
   C    122.11000000    62.68000000    36.65000000
   C    123.78000000    61.44000000    38.53000000
   C    122.59000000    61.39000000    36.42000000
   C    123.38000000    60.73000000    37.38000000
   O    123.97000000    59.52000000    37.21000000
   H    121.07000000    66.93000000    38.33000000
   H    119.97000000    64.28000000    38.20000000
   H    122.80000000    65.16000000    38.70000000
   H    122.00000000    65.14000000    37.04000000
   H    123.47000000    63.22000000    39.74000000
   H    121.62000000    63.23000000    35.85000000
   H    124.47000000    61.03000000    39.26000000
   H    122.30000000    60.84000000    35.53000000
   H    123.46000000    59.03000000    36.55000000
   N    119.77000000    63.70000000    40.57000000
   C    119.57000000    63.28000000    41.95000000
   C    120.76000000    62.57000000    42.58000000
   O    121.92000000    62.98000000    42.59000000
   C    118.73000000    64.29000000    42.72000000
   C    118.03000000    63.63000000    43.91000000
   C    117.60000000    64.88000000    41.88000000
   C    117.55000000    64.67000000    44.92000000
   H    119.38000000    63.18000000    39.80000000
   H    118.80000000    62.50000000    41.86000000
   H    119.37000000    65.10000000    43.07000000
   H    118.80000000    63.04000000    44.40000000
   H    117.22000000    62.96000000    43.61000000
   H    117.00000000    64.17000000    41.31000000
   H    116.74000000    65.27000000    42.42000000
   H    118.03000000    65.60000000    41.18000000
   H    117.11000000    65.59000000    44.55000000
   H    116.81000000    64.22000000    45.59000000
   H    118.35000000    64.97000000    45.60000000
   N    120.50000000    61.43000000    43.22000000
   C    121.42000000    60.78000000    44.14000000
   C    121.21000000    59.27000000    44.17000000
   O    122.17000000    58.53000000    44.39000000
   C    121.10000000    61.30000000    45.54000000
   O    119.76000000    60.96000000    45.85000000
   H    119.54000000    61.13000000    43.24000000
   H    122.45000000    60.96000000    43.86000000
   H    121.33000000    62.36000000    45.59000000
   H    121.68000000    60.77000000    46.30000000
   H    119.50000000    61.25000000    46.72000000
   N    120.09000000    58.69000000    43.75000000
   C    119.86000000    57.26000000    43.66000000
   C    120.21000000    56.44000000    44.89000000
   O    121.07000000    55.56000000    44.84000000
   C    120.49000000    56.77000000    42.36000000
   H    119.32000000    59.30000000    43.52000000
   H    118.78000000    57.26000000    43.55000000
   H    120.14000000    55.78000000    42.09000000
   H    120.27000000    57.48000000    41.56000000
   H    121.54000000    56.59000000    42.57000000
   N    119.56000000    56.60000000    46.05000000
   C    118.76000000    57.71000000    46.53000000
   C    117.48000000    57.26000000    47.22000000
   O    117.42000000    56.20000000    47.84000000
   C    119.69000000    58.40000000    47.52000000
   H    119.95000000    55.97000000    46.74000000
   H    118.62000000    58.46000000    45.76000000
   H    119.38000000    59.44000000    47.67000000
   H    119.70000000    57.84000000    48.46000000
   H    120.72000000    58.46000000    47.17000000
   N    116.55000000    58.22000000    47.24000000
   C    116.45000000    59.55000000    46.67000000
   C    115.44000000    59.61000000    45.53000000
   O    115.69000000    60.20000000    44.48000000
   C    116.06000000    60.49000000    47.80000000
   C    115.43000000    61.80000000    47.33000000
   C    115.23000000    62.74000000    48.51000000
   O    114.11000000    63.29000000    48.58000000
   O    116.16000000    62.91000000    49.32000000
   H    115.73000000    58.04000000    47.80000000
   H    117.35000000    59.83000000    46.12000000
   H    117.00000000    60.63000000    48.33000000
   H    115.45000000    59.99000000    48.55000000
   H    114.45000000    61.55000000    46.92000000
   H    115.97000000    62.31000000    46.54000000
   N    114.27000000    59.02000000    45.78000000
   C    113.14000000    58.88000000    44.88000000
   H    112.33400000    59.53700000    45.20500000
   H    113.44400000    59.15200000    43.86900000
   H    112.79300000    57.84700000    44.89000000
   H    114.20000000    58.47000000    46.62000000
  Ca    120.14100000    70.00000000    42.64000000
   O    121.66100000    67.51000000    42.41000000
   H    122.01100000    66.92000000    43.08000000
   H    121.74100000    67.02000000    41.59000000
   O    119.80100000    68.11000000    44.67000000
   H    120.39100000    67.44000000    45.03000000
   H    119.08100000    68.17000000    45.30000000
   O    117.92100000    70.77000000    44.66000000
   H    118.20100000    71.37000000    45.36000000
   H    117.23100000    70.24000000    45.07000000
   O    117.56100000    68.79000000    42.01000000
   H    117.07100000    68.09000000    41.59000000
   H    117.02100000    69.57000000    41.87000000

Ca 1.70



