%chk=loop1.cluster88.chk
%nprocshared=48
%mem=10GB
%nosave
#b3lyp/svp scf=(tight,noincore) Test 
#IOP(5/87=12) Density=Current Pop=(MK,readradii) iop(6/33=2) iop(6/42=6)

loop1.cluster88 

   0  1 
   C     73.54000000    68.81000000    44.48000000
   C     72.46000000    68.82000000    43.40000000
   O     71.28000000    68.82000000    43.73000000
   H     74.38700000    69.41200000    44.15200000
   H     73.13600000    69.22500000    45.40300000
   H     73.87000000    67.78600000    44.65600000
   N     72.81000000    68.83000000    42.12000000
   C     72.06000000    68.88000000    40.88000000
   C     71.11000000    70.07000000    40.92000000
   O     69.94000000    69.99000000    40.55000000
   C     71.57000000    67.50000000    40.46000000
   C     71.03000000    67.37000000    39.04000000
   O     70.34000000    66.36000000    38.77000000
   O     71.39000000    68.17000000    38.15000000
   H     73.82000000    68.77000000    42.00000000
   H     72.80000000    69.26000000    40.17000000
   H     70.82000000    67.13000000    41.16000000
   H     72.49000000    66.94000000    40.54000000
   N     71.55000000    71.13000000    41.59000000
   C     70.90000000    72.41000000    41.83000000
   C     71.36000000    73.36000000    40.74000000
   O     70.53000000    74.10000000    40.23000000
   C     71.23000000    72.97000000    43.21000000
   C     70.69000000    72.19000000    44.40000000
   C     70.67000000    72.86000000    45.77000000
   C     70.06000000    71.82000000    46.71000000
   N     69.94000000    72.37000000    48.07000000
   H     72.51000000    71.13000000    41.92000000
   H     69.81000000    72.29000000    41.81000000
   H     70.76000000    73.95000000    43.33000000
   H     72.28000000    73.23000000    43.31000000
   H     71.24000000    71.25000000    44.46000000
   H     69.65000000    71.95000000    44.22000000
   H     69.99000000    73.71000000    45.71000000
   H     71.64000000    73.20000000    46.12000000
   H     70.79000000    71.00000000    46.64000000
   H     69.06000000    71.61000000    46.34000000
   H     69.32000000    73.16000000    48.20000000
   H     69.57000000    71.70000000    48.73000000
   H     70.86000000    72.58000000    48.43000000
   N     72.64000000    73.32000000    40.35000000
   C     73.20000000    74.37000000    39.52000000
   C     73.18000000    74.08000000    38.03000000
   O     73.39000000    74.98000000    37.22000000
   C     74.57000000    74.83000000    40.01000000
   C     74.73000000    76.33000000    40.19000000
   O     73.71000000    76.96000000    40.56000000
   O     75.76000000    76.99000000    39.94000000
   H     73.27000000    72.65000000    40.77000000
   H     72.55000000    75.24000000    39.63000000
   H     75.31000000    74.43000000    39.30000000
   H     74.86000000    74.30000000    40.92000000
   N     72.85000000    72.87000000    37.55000000
   C     73.19000000    72.50000000    36.19000000
   C     74.70000000    72.49000000    36.01000000
   O     75.46000000    71.67000000    36.53000000
   H     72.74000000    72.18000000    38.27000000
   H     72.81000000    73.25000000    35.49000000
   H     72.73000000    71.57000000    35.85000000
   N     75.19000000    73.52000000    35.32000000
   C     76.55000000    73.90000000    35.01000000
   C     77.16000000    74.72000000    36.13000000
   O     77.41000000    75.91000000    36.02000000
   C     76.60000000    74.62000000    33.66000000
   C     75.68000000    75.81000000    33.42000000
   O     75.99000000    76.48000000    32.41000000
   O     74.68000000    75.99000000    34.14000000
   H     74.48000000    74.17000000    35.03000000
   H     77.19000000    73.01000000    35.03000000
   H     76.40000000    73.92000000    32.85000000
   H     77.63000000    74.97000000    33.64000000
   N     77.40000000    74.09000000    37.29000000
   C     78.03000000    74.68000000    38.45000000
   C     79.55000000    74.81000000    38.37000000
   O     80.14000000    74.15000000    37.52000000
   H     77.26000000    73.10000000    37.36000000
   H     77.80000000    74.03000000    39.29000000
   H     77.57000000    75.60000000    38.80000000
   N     80.10000000    75.66000000    39.23000000
   C     81.53000000    75.70000000    39.48000000
   C     82.34000000    76.02000000    38.24000000
   O     82.02000000    76.98000000    37.54000000
   C     81.93000000    76.58000000    40.67000000
   C     81.74000000    75.80000000    41.96000000
   O     83.33000000    76.77000000    40.65000000
   H     79.48000000    76.14000000    39.87000000
   H     81.76000000    74.67000000    39.74000000
   H     81.44000000    77.55000000    40.69000000
   H     83.53000000    77.68000000    40.42000000
   H     82.19000000    76.46000000    42.70000000
   H     80.68000000    75.61000000    42.15000000
   H     82.24000000    74.84000000    41.85000000
   N     83.28000000    75.12000000    37.95000000
   C     84.05000000    75.00000000    36.72000000
   C     83.83000000    73.77000000    35.86000000
   O     84.66000000    73.36000000    35.05000000
   C     85.52000000    75.21000000    37.07000000
   C     86.23000000    74.10000000    37.84000000
   C     85.60000000    76.61000000    37.69000000
   C     87.69000000    74.44000000    38.10000000
   H     83.39000000    74.41000000    38.65000000
   H     83.91000000    75.87000000    36.08000000
   H     85.95000000    75.25000000    36.07000000
   H     86.28000000    73.11000000    37.39000000
   H     85.78000000    73.98000000    38.83000000
   H     85.09000000    77.31000000    37.03000000
   H     85.31000000    76.56000000    38.74000000
   H     86.66000000    76.85000000    37.66000000
   H     87.66000000    75.09000000    38.97000000
   H     88.26000000    73.62000000    38.56000000
   H     88.25000000    74.77000000    37.23000000
   N     82.62000000    73.21000000    35.91000000
   C     82.19000000    72.15000000    35.01000000
   C     81.55000000    70.99000000    35.75000000
   O     81.14000000    71.11000000    36.90000000
   C     81.29000000    72.74000000    33.94000000
   C     79.99000000    73.33000000    34.49000000
   O     81.95000000    73.76000000    33.22000000
   H     82.02000000    73.55000000    36.65000000
   H     82.98000000    71.86000000    34.32000000
   H     81.00000000    71.92000000    33.28000000
   H     81.98000000    74.58000000    33.72000000
   H     80.11000000    74.17000000    35.18000000
   H     79.45000000    73.66000000    33.61000000
   H     79.31000000    72.65000000    35.00000000
   N     81.21000000    69.91000000    35.04000000
   C     80.52000000    68.78000000    35.64000000
   C     81.41000000    67.93000000    36.53000000
   O     81.04000000    67.02000000    37.28000000
   C     79.79000000    68.01000000    34.55000000
   C     78.73000000    67.04000000    35.08000000
   O     80.83000000    67.22000000    34.00000000
   H     81.53000000    69.75000000    34.10000000
   H     79.77000000    69.14000000    36.35000000
   H     79.38000000    68.57000000    33.71000000
   H     80.39000000    66.61000000    33.41000000
   H     79.18000000    66.33000000    35.77000000
   H     77.92000000    67.51000000    35.64000000
   H     78.35000000    66.46000000    34.24000000
   N     82.73000000    68.13000000    36.50000000
   C     83.81000000    67.52000000    37.24000000
   C     84.89000000    68.49000000    37.69000000
   O     84.98000000    69.61000000    37.19000000
   C     84.36000000    66.33000000    36.46000000
   C     84.64000000    66.80000000    35.04000000
   C     85.65000000    65.87000000    34.37000000
   C     85.74000000    66.02000000    32.85000000
   N     86.88000000    65.23000000    32.37000000
   H     83.07000000    68.92000000    35.96000000
   H     83.40000000    67.12000000    38.17000000
   H     83.55000000    65.60000000    36.39000000
   H     85.22000000    65.90000000    36.98000000
   H     85.15000000    67.76000000    35.01000000
   H     83.74000000    66.88000000    34.43000000
   H     85.28000000    64.85000000    34.44000000
   H     86.63000000    66.06000000    34.82000000
   H     85.91000000    67.07000000    32.65000000
   H     84.76000000    65.70000000    32.47000000
   H     87.00000000    64.29000000    32.73000000
   H     86.96000000    65.21000000    31.37000000
   H     87.80000000    65.60000000    32.60000000
   N     85.64000000    68.19000000    38.75000000
   C     86.72000000    69.01000000    39.26000000
   C     86.91000000    68.98000000    40.78000000
   O     87.91000000    68.47000000    41.29000000
   C     88.03000000    68.55000000    38.62000000
   C     88.09000000    68.76000000    37.11000000
   C     89.51000000    68.65000000    36.59000000
   O     89.81000000    67.77000000    35.76000000
   O     90.41000000    69.32000000    37.15000000
   H     85.67000000    67.21000000    39.01000000
   H     86.65000000    70.07000000    39.01000000
   H     88.08000000    67.47000000    38.75000000
   H     88.88000000    69.03000000    39.10000000
   H     87.81000000    69.79000000    36.87000000
   H     87.43000000    68.07000000    36.59000000
   N     85.92000000    69.46000000    41.53000000
   C     84.66000000    70.08000000    41.17000000
   H     83.92100000    69.87800000    41.94600000
   H     84.79900000    71.15700000    41.07300000
   H     84.31100000    69.67100000    40.22200000
   H     85.98000000    69.41000000    42.53000000
  Ca     73.08000000    77.15000000    35.81000000
   O     70.40000000    77.91000000    35.64000000
   H     69.57000000    77.60000000    35.28000000
   H     70.32000000    78.87000000    35.64000000
   O     75.39000000    77.36000000    37.35000000
   H     76.06000000    76.84000000    36.91000000
   H     75.60000000    77.30000000    38.28000000
   O     72.69000000    77.99000000    38.43000000
   H     71.92000000    78.54000000    38.58000000
   H     73.07000000    77.86000000    39.30000000
   O     71.22000000    75.21000000    35.18000000
   H     70.94000000    75.36000000    34.28000000
   H     70.44000000    74.90000000    35.64000000
   O     72.37000000    77.29000000    33.19000000
   H     71.55000000    76.86000000    32.95000000
   H     72.71000000    77.61000000    32.36000000
   O     72.92000000    79.84000000    35.79000000
   H     73.32000000    80.41000000    36.44000000
   H     72.06000000    80.22000000    35.63000000

Ca 1.70



