%chk=loop3.cluster126.chk
%nprocshared=48
%mem=10GB
%nosave
#b3lyp/svp scf=(tight,noincore) Test 
#IOP(5/87=12) Density=Current Pop=(MK,readradii) iop(6/33=2) iop(6/42=6)

loop3.cluster126 

   0  1 
   C     92.34000000    94.49000000    14.98000000
   C     92.47000000    93.22000000    15.80000000
   O     91.55000000    92.83000000    16.52000000
   H     91.62800000    95.16100000    15.46100000
   H     93.31100000    94.98000000    14.91200000
   H     91.98700000    94.24200000    13.97900000
   N     93.62000000    92.54000000    15.78000000
   C     93.86000000    91.37000000    16.60000000
   C     93.88000000    91.67000000    18.10000000
   O     93.96000000    90.75000000    18.91000000
   C     95.05000000    90.54000000    16.14000000
   C     96.39000000    91.25000000    16.07000000
   O     97.31000000    90.86000000    15.31000000
   O     96.60000000    92.28000000    16.75000000
   H     94.39000000    92.89000000    15.23000000
   H     92.93000000    90.80000000    16.50000000
   H     94.91000000    89.90000000    15.27000000
   H     95.25000000    89.78000000    16.90000000
   N     93.90000000    92.96000000    18.42000000
   C     94.09000000    93.39000000    19.79000000
   C     95.57000000    93.37000000    20.15000000
   O     96.37000000    94.23000000    19.78000000
   C     93.65000000    94.85000000    19.84000000
   C     92.17000000    95.10000000    19.58000000
   C     91.85000000    96.59000000    19.57000000
   C     90.46000000    96.80000000    18.96000000
   N     90.03000000    98.20000000    18.88000000
   H     93.88000000    93.67000000    17.70000000
   H     93.49000000    92.85000000    20.53000000
   H     94.30000000    95.44000000    19.19000000
   H     93.79000000    95.30000000    20.83000000
   H     91.57000000    94.59000000    20.33000000
   H     91.90000000    94.69000000    18.60000000
   H     92.54000000    97.21000000    18.99000000
   H     91.87000000    96.92000000    20.61000000
   H     89.78000000    96.14000000    19.49000000
   H     90.52000000    96.42000000    17.94000000
   H     90.82000000    98.75000000    18.57000000
   H     89.19000000    98.33000000    18.33000000
   H     89.81000000    98.62000000    19.78000000
   N     95.97000000    92.39000000    20.96000000
   C     97.36000000    92.20000000    21.31000000
   C     97.90000000    90.91000000    20.70000000
   O     98.93000000    90.37000000    21.10000000
   C     97.45000000    92.21000000    22.83000000
   C     96.61000000    91.25000000    23.66000000
   O     95.57000000    90.68000000    23.26000000
   O     97.07000000    90.92000000    24.77000000
   H     95.28000000    91.65000000    21.02000000
   H     98.03000000    92.95000000    20.88000000
   H     97.14000000    93.20000000    23.16000000
   H     98.48000000    92.18000000    23.19000000
   N     97.19000000    90.36000000    19.71000000
   C     97.53000000    89.12000000    19.03000000
   C     98.73000000    89.25000000    18.11000000
   O     99.33000000    90.31000000    17.96000000
   H     96.39000000    90.89000000    19.39000000
   H     96.65000000    88.90000000    18.42000000
   H     97.65000000    88.23000000    19.64000000
   N     99.05000000    88.16000000    17.41000000
   C     98.45000000    86.84000000    17.43000000
   C     98.44000000    86.11000000    16.09000000
   O     99.34000000    85.34000000    15.75000000
   C     99.28000000    85.98000000    18.39000000
   C     99.22000000    86.42000000    19.85000000
   N     98.21000000    85.98000000    20.60000000
   O    100.09000000    87.15000000    20.35000000
   H     99.78000000    88.33000000    16.73000000
   H     97.46000000    86.85000000    17.88000000
   H    100.30000000    86.08000000    18.04000000
   H     99.05000000    84.92000000    18.34000000
   H     97.41000000    85.50000000    20.22000000
   H     98.15000000    86.26000000    21.57000000
   N     97.39000000    86.30000000    15.29000000
   C     96.21000000    87.10000000    15.53000000
   C     95.15000000    86.36000000    16.33000000
   O     94.31000000    87.03000000    16.94000000
   H     97.54000000    85.90000000    14.38000000
   H     95.80000000    87.29000000    14.54000000
   H     96.44000000    88.03000000    16.06000000
   N     95.11000000    85.04000000    16.49000000
   C     94.26000000    84.39000000    17.47000000
   C     94.83000000    84.48000000    18.88000000
   O     96.02000000    84.71000000    19.10000000
   C     93.95000000    82.96000000    17.02000000
   C     93.11000000    82.92000000    15.77000000
   C     91.96000000    83.72000000    15.63000000
   C     93.46000000    82.03000000    14.75000000
   C     91.17000000    83.70000000    14.48000000
   C     92.65000000    81.96000000    13.61000000
   C     91.53000000    82.79000000    13.46000000
   O     90.75000000    82.55000000    12.37000000
   H     95.62000000    84.48000000    15.82000000
   H     93.30000000    84.91000000    17.44000000
   H     93.34000000    82.50000000    17.80000000
   H     94.88000000    82.42000000    16.92000000
   H     91.70000000    84.36000000    16.46000000
   H     94.28000000    81.32000000    14.79000000
   H     90.24000000    84.26000000    14.42000000
   H     92.76000000    81.13000000    12.93000000
   H     91.04000000    81.77000000    11.88000000
   N     93.88000000    84.51000000    19.81000000
   C     94.04000000    84.93000000    21.19000000
   C     93.75000000    83.84000000    22.21000000
   O     93.97000000    84.09000000    23.40000000
   C     93.13000000    86.15000000    21.32000000
   C     93.83000000    87.25000000    20.53000000
   C     91.64000000    85.97000000    21.03000000
   C     94.87000000    88.07000000    21.31000000
   H     92.92000000    84.27000000    19.61000000
   H     95.09000000    85.22000000    21.33000000
   H     93.04000000    86.47000000    22.35000000
   H     93.11000000    88.05000000    20.35000000
   H     94.22000000    86.87000000    19.59000000
   H     91.16000000    86.89000000    21.35000000
   H     91.37000000    85.93000000    19.98000000
   H     91.40000000    85.04000000    21.54000000
   H     94.37000000    88.35000000    22.23000000
   H     95.71000000    87.39000000    21.46000000
   H     95.23000000    88.88000000    20.68000000
   N     93.18000000    82.69000000    21.87000000
   C     92.80000000    81.67000000    22.83000000
   C     91.53000000    81.98000000    23.60000000
   O     90.52000000    82.30000000    22.97000000
   C     92.65000000    80.26000000    22.26000000
   O     93.61000000    80.01000000    21.26000000
   H     92.89000000    82.57000000    20.91000000
   H     93.54000000    81.59000000    23.63000000
   H     91.66000000    80.05000000    21.85000000
   H     92.82000000    79.58000000    23.09000000
   H     93.20000000    79.60000000    20.49000000
   N     91.48000000    81.82000000    24.92000000
   C     90.24000000    81.83000000    25.68000000
   C     89.92000000    83.15000000    26.35000000
   O     90.83000000    83.76000000    26.91000000
   C     90.52000000    80.74000000    26.72000000
   H     92.31000000    81.53000000    25.41000000
   H     89.38000000    81.70000000    25.03000000
   H     90.70000000    79.84000000    26.14000000
   H     91.40000000    81.01000000    27.30000000
   H     89.61000000    80.53000000    27.28000000
   N     88.64000000    83.51000000    26.48000000
   C     88.16000000    84.69000000    27.17000000
   C     88.47000000    85.99000000    26.45000000
   O     88.44000000    87.02000000    27.12000000
   C     88.59000000    84.60000000    28.63000000
   H     87.90000000    82.97000000    26.05000000
   H     87.07000000    84.59000000    27.20000000
   H     89.58000000    85.04000000    28.79000000
   H     87.88000000    85.06000000    29.32000000
   H     88.56000000    83.57000000    28.97000000
   N     88.84000000    86.05000000    25.17000000
   C     89.03000000    87.28000000    24.42000000
   C     88.10000000    87.44000000    23.23000000
   O     87.97000000    88.58000000    22.77000000
   C     90.51000000    87.40000000    24.04000000
   C     91.25000000    87.91000000    25.26000000
   C     92.74000000    88.07000000    24.97000000
   O     93.16000000    89.21000000    24.67000000
   O     93.57000000    87.15000000    25.10000000
   H     88.84000000    85.23000000    24.59000000
   H     88.80000000    88.15000000    25.03000000
   H     90.63000000    88.10000000    23.20000000
   H     90.88000000    86.41000000    23.81000000
   H     91.17000000    87.22000000    26.10000000
   H     90.87000000    88.88000000    25.58000000
   N     87.53000000    86.34000000    22.74000000
   C     86.42000000    86.48000000    21.81000000
   H     85.60400000    87.01400000    22.29700000
   H     86.74800000    87.03900000    20.93400000
   H     86.07500000    85.49200000    21.50300000
   H     87.65000000    85.42000000    23.13000000
  Ca     95.81000000    88.62000000    25.01000000
   O     95.22000000    89.69000000    27.44000000
   H     95.31000000    89.27000000    28.30000000
   H     95.58000000    90.57000000    27.56000000
   O     98.39000000    87.85000000    26.10000000
   H     99.16000000    88.29000000    26.46000000
   H     98.74000000    87.14000000    25.57000000
   O     95.47000000    86.63000000    27.14000000
   H     94.61000000    86.30000000    26.88000000
   H     95.73000000    86.08000000    27.87000000
   O     97.76000000    88.46000000    23.11000000
   H     98.31000000    87.69000000    23.09000000
   H     98.02000000    88.97000000    22.35000000
   O     96.23000000    85.95000000    23.85000000
   H     96.91000000    85.30000000    23.71000000
   H     95.41000000    85.46000000    23.80000000

Ca 1.70



