%chk=loop2.cluster17.chk
%nprocshared=48
%mem=10GB
%nosave
#b3lyp/svp scf=(tight,noincore) Test 
#IOP(5/87=12) Density=Current Pop=(MK,readradii) iop(6/33=2) iop(6/42=6)

loop2.cluster17 

   -2  1 
   C     48.15000000    44.14000000     9.19000000
   C     47.10000000    45.22000000     9.01000000
   O     47.07000000    46.23000000     9.72000000
   H     49.03800000    44.57100000     9.65200000
   H     47.75500000    43.35100000     9.83000000
   H     48.41300000    43.72300000     8.21800000
   N     46.29000000    45.27000000     7.95000000
   C     45.90000000    44.26000000     6.99000000
   C     44.40000000    44.25000000     6.69000000
   O     43.77000000    45.31000000     6.71000000
   C     46.68000000    44.42000000     5.69000000
   C     46.86000000    45.83000000     5.14000000
   O     47.76000000    46.03000000     4.30000000
   O     46.16000000    46.75000000     5.60000000
   H     45.72000000    46.10000000     7.87000000
   H     46.07000000    43.29000000     7.45000000
   H     46.34000000    43.75000000     4.91000000
   H     47.69000000    44.08000000     5.92000000
   N     43.86000000    43.13000000     6.22000000
   C     42.49000000    42.93000000     5.79000000
   C     42.12000000    43.72000000     4.55000000
   O     41.21000000    43.25000000     3.87000000
   C     41.59000000    43.04000000     7.02000000
   H     44.45000000    42.30000000     6.24000000
   H     42.42000000    41.89000000     5.46000000
   H     40.63000000    42.57000000     6.79000000
   H     42.08000000    42.44000000     7.78000000
   H     41.43000000    44.04000000     7.43000000
   N     42.62000000    44.89000000     4.13000000
   C     42.36000000    45.48000000     2.84000000
   C     43.63000000    46.13000000     2.31000000
   O     44.28000000    46.94000000     2.97000000
   C     41.21000000    46.47000000     2.97000000
   C     41.18000000    47.42000000     4.16000000
   O     42.11000000    47.49000000     4.99000000
   O     40.15000000    48.13000000     4.22000000
   H     43.28000000    45.38000000     4.72000000
   H     42.01000000    44.72000000     2.14000000
   H     40.29000000    45.89000000     3.02000000
   H     41.12000000    46.98000000     2.01000000
   N     43.96000000    45.88000000     1.04000000
   C     45.16000000    46.37000000     0.39000000
   C     45.01000000    47.78000000    -0.16000000
   O     45.41000000    48.09000000    -1.29000000
   H     43.40000000    45.29000000     0.45000000
   H     45.42000000    45.65000000    -0.39000000
   H     45.98000000    46.30000000     1.11000000
   N     44.35000000    48.64000000     0.62000000
   C     43.99000000    49.99000000     0.26000000
   C     45.10000000    50.97000000     0.64000000
   O     45.14000000    52.11000000     0.20000000
   C     42.59000000    50.26000000     0.81000000
   C     42.42000000    50.49000000     2.31000000
   N     41.60000000    51.50000000     2.61000000
   O     43.10000000    49.93000000     3.17000000
   H     44.12000000    48.29000000     1.54000000
   H     43.87000000    50.17000000    -0.81000000
   H     41.98000000    49.39000000     0.57000000
   H     42.26000000    51.13000000     0.24000000
   H     40.94000000    51.78000000     1.90000000
   H     41.26000000    51.54000000     3.56000000
   N     45.96000000    50.58000000     1.59000000
   C     46.85000000    51.48000000     2.29000000
   C     46.41000000    51.88000000     3.70000000
   O     45.37000000    51.38000000     4.13000000
   H     45.84000000    49.64000000     1.94000000
   H     47.09000000    52.39000000     1.75000000
   H     47.78000000    50.91000000     2.33000000
   N     47.19000000    52.66000000     4.46000000
   C     48.40000000    53.37000000     4.11000000
   C     49.47000000    53.15000000     5.17000000
   O     50.61000000    53.38000000     4.76000000
   C     48.02000000    54.84000000     3.99000000
   C     47.15000000    55.06000000     2.75000000
   O     47.31000000    55.17000000     5.16000000
   H     46.88000000    52.82000000     5.40000000
   H     48.82000000    52.99000000     3.18000000
   H     48.92000000    55.46000000     3.88000000
   H     47.12000000    56.11000000     5.12000000
   H     47.47000000    54.57000000     1.83000000
   H     46.15000000    54.69000000     3.00000000
   H     47.07000000    56.12000000     2.51000000
   N     49.14000000    52.73000000     6.39000000
   C     49.92000000    52.58000000     7.60000000
   C     50.67000000    53.88000000     7.83000000
   O     51.74000000    54.15000000     7.28000000
   C     50.73000000    51.28000000     7.61000000
   C     49.86000000    50.04000000     7.44000000
   C     51.57000000    51.18000000     8.88000000
   C     50.50000000    48.65000000     7.49000000
   H     48.22000000    52.33000000     6.52000000
   H     49.16000000    52.41000000     8.36000000
   H     51.41000000    51.39000000     6.77000000
   H     49.28000000    49.95000000     6.52000000
   H     49.11000000    50.07000000     8.22000000
   H     52.09000000    52.11000000     9.09000000
   H     50.92000000    50.94000000     9.72000000
   H     52.36000000    50.42000000     8.82000000
   H     51.45000000    48.71000000     8.01000000
   H     50.03000000    47.96000000     8.17000000
   H     50.63000000    48.13000000     6.54000000
   N     50.09000000    54.82000000     8.57000000
   C     48.77000000    54.77000000     9.17000000
   C     48.70000000    53.78000000    10.32000000
   O     47.74000000    53.05000000    10.52000000
   C     48.21000000    56.14000000     9.54000000
   C     49.11000000    57.04000000    10.37000000
   O     50.30000000    56.76000000    10.63000000
   O     48.63000000    58.16000000    10.66000000
   H     50.64000000    55.67000000     8.69000000
   H     48.07000000    54.45000000     8.40000000
   H     47.21000000    56.08000000     9.98000000
   H     48.04000000    56.62000000     8.58000000
   N     49.81000000    53.59000000    11.05000000
   C     49.88000000    52.58000000    12.09000000
   C     49.02000000    52.91000000    13.30000000
   O     48.76000000    54.09000000    13.55000000
   C     51.37000000    52.50000000    12.41000000
   C     52.08000000    53.59000000    13.17000000
   C     52.63000000    54.71000000    12.53000000
   C     52.02000000    53.49000000    14.56000000
   C     53.42000000    55.59000000    13.28000000
   C     52.73000000    54.47000000    15.26000000
   C     53.38000000    55.57000000    14.68000000
   H     50.57000000    54.23000000    10.90000000
   H     49.54000000    51.62000000    11.71000000
   H     51.86000000    52.42000000    11.44000000
   H     51.47000000    51.57000000    12.97000000
   H     52.54000000    54.84000000    11.46000000
   H     51.64000000    52.63000000    15.11000000
   H     53.86000000    56.47000000    12.83000000
   H     52.73000000    54.50000000    16.34000000
   H     53.71000000    56.37000000    15.32000000
   N     48.56000000    51.89000000    14.02000000
   C     49.16000000    50.58000000    14.17000000
   C     48.60000000    49.41000000    13.37000000
   O     47.78000000    49.67000000    12.49000000
   C     49.01000000    50.35000000    15.67000000
   C     47.59000000    50.85000000    15.95000000
   C     47.56000000    52.08000000    15.05000000
   H     50.24000000    50.62000000    14.04000000
   H     49.21000000    49.35000000    16.05000000
   H     49.75000000    51.00000000    16.13000000
   H     46.85000000    50.11000000    15.63000000
   H     47.47000000    51.03000000    17.02000000
   H     46.56000000    52.31000000    14.67000000
   H     48.01000000    52.82000000    15.71000000
   N     49.08000000    48.18000000    13.58000000
   C     48.36000000    47.00000000    13.13000000
   C     49.14000000    45.73000000    12.84000000
   O     48.56000000    44.64000000    12.81000000
   C     47.23000000    46.67000000    14.10000000
   C     47.69000000    46.33000000    15.51000000
   C     46.78000000    45.41000000    16.31000000
   O     47.34000000    44.50000000    16.97000000
   O     45.56000000    45.66000000    16.29000000
   H     49.77000000    48.02000000    14.30000000
   H     47.87000000    47.33000000    12.22000000
   H     46.70000000    45.78000000    13.76000000
   H     46.55000000    47.53000000    14.16000000
   H     47.87000000    47.25000000    16.07000000
   H     48.66000000    45.84000000    15.41000000
   N     50.46000000    45.70000000    12.68000000
   C     51.48000000    46.72000000    12.66000000
   H     52.36700000    46.33600000    12.15600000
   H     51.10900000    47.59500000    12.12600000
   H     51.73600000    46.99900000    13.68200000
   H     50.83000000    44.76000000    12.60000000
  Ca     44.42000000    48.74000000     5.35000000
   O     46.58000000    48.61000000     3.69000000
   H     47.39000000    49.12000000     3.70000000
   H     46.84000000    47.74000000     3.99000000
   O     43.19000000    50.76000000     6.48000000
   H     42.28000000    50.59000000     6.72000000
   H     43.38000000    51.62000000     6.86000000
   O     46.02000000    49.98000000     7.23000000
   H     46.24000000    50.90000000     7.37000000
   H     45.92000000    49.62000000     8.11000000
   O     43.42000000    47.83000000     7.74000000
   H     43.43000000    46.89000000     7.94000000
   H     43.20000000    48.25000000     8.57000000

Ca 1.70



