%chk=loop1.cluster122.chk
%nprocshared=48
%mem=10GB
%nosave
#b3lyp/svp scf=(tight,noincore) Test 
#IOP(5/87=12) Density=Current Pop=(MK,readradii) iop(6/33=2) iop(6/42=6)

loop1.cluster122 

   0  1 
   C     47.10000000    38.71000000     8.11000000
   C     47.45000000    38.80000000     6.63000000
   O     48.33000000    39.56000000     6.22000000
   H     46.06200000    38.39500000     8.21900000
   H     47.75200000    37.98300000     8.59500000
   H     47.23400000    39.68600000     8.57600000
   N     46.75000000    38.02000000     5.80000000
   C     46.91000000    37.73000000     4.39000000
   C     46.14000000    38.73000000     3.53000000
   O     45.27000000    38.46000000     2.72000000
   C     46.73000000    36.24000000     4.10000000
   C     45.62000000    35.47000000     4.80000000
   O     45.16000000    34.44000000     4.27000000
   O     44.96000000    35.98000000     5.73000000
   H     46.05000000    37.46000000     6.27000000
   H     47.95000000    37.91000000     4.12000000
   H     47.68000000    35.79000000     4.38000000
   H     46.60000000    36.01000000     3.04000000
   N     46.48000000    40.00000000     3.77000000
   C     45.95000000    41.12000000     3.03000000
   C     47.00000000    42.21000000     2.83000000
   O     47.14000000    43.02000000     3.75000000
   C     44.70000000    41.72000000     3.67000000
   C     43.47000000    40.82000000     3.68000000
   C     42.79000000    40.45000000     2.36000000
   C     41.59000000    39.53000000     2.52000000
   N     42.01000000    38.13000000     2.59000000
   H     47.23000000    40.11000000     4.44000000
   H     45.65000000    40.79000000     2.03000000
   H     44.40000000    42.69000000     3.30000000
   H     44.94000000    41.93000000     4.72000000
   H     42.68000000    41.32000000     4.23000000
   H     43.77000000    40.00000000     4.32000000
   H     43.53000000    40.00000000     1.69000000
   H     42.47000000    41.33000000     1.80000000
   H     40.86000000    39.67000000     1.72000000
   H     41.01000000    39.77000000     3.42000000
   H     42.61000000    37.95000000     1.80000000
   H     42.43000000    37.82000000     3.45000000
   H     41.22000000    37.51000000     2.47000000
   N     47.74000000    42.42000000     1.74000000
   C     47.91000000    41.69000000     0.49000000
   C     46.76000000    41.71000000    -0.50000000
   O     45.61000000    41.89000000    -0.13000000
   C     48.47000000    40.30000000     0.79000000
   C     49.61000000    40.10000000     1.78000000
   O     50.77000000    40.01000000     1.30000000
   O     49.49000000    40.13000000     3.02000000
   H     48.45000000    43.12000000     1.87000000
   H     48.80000000    42.07000000    -0.02000000
   H     48.73000000    39.79000000    -0.14000000
   H     47.66000000    39.73000000     1.23000000
   N     46.94000000    41.50000000    -1.81000000
   C     48.17000000    41.52000000    -2.57000000
   C     47.94000000    41.06000000    -4.01000000
   O     47.60000000    41.80000000    -4.93000000
   H     46.11000000    41.35000000    -2.37000000
   H     48.96000000    40.89000000    -2.16000000
   H     48.62000000    42.51000000    -2.59000000
   N     48.02000000    39.77000000    -4.34000000
   C     48.37000000    38.61000000    -3.55000000
   C     47.13000000    37.97000000    -2.94000000
   O     46.03000000    38.13000000    -3.45000000
   C     49.21000000    37.72000000    -4.47000000
   C     49.87000000    36.65000000    -3.62000000
   O     50.24000000    36.84000000    -2.45000000
   O     50.12000000    35.54000000    -4.15000000
   H     47.72000000    39.57000000    -5.29000000
   H     49.05000000    38.89000000    -2.75000000
   H     50.06000000    38.24000000    -4.92000000
   H     48.66000000    37.27000000    -5.29000000
   N     47.31000000    37.16000000    -1.89000000
   C     46.33000000    36.14000000    -1.57000000
   C     46.71000000    35.41000000    -0.29000000
   O     45.88000000    34.81000000     0.39000000
   H     48.25000000    37.05000000    -1.54000000
   H     46.14000000    35.48000000    -2.41000000
   H     45.41000000    36.69000000    -1.37000000
   N     48.01000000    35.33000000    -0.02000000
   C     48.66000000    34.86000000     1.19000000
   C     49.32000000    36.03000000     1.89000000
   O     49.24000000    37.17000000     1.45000000
   C     49.41000000    33.58000000     0.81000000
   C     48.42000000    32.47000000     0.48000000
   O     50.06000000    33.09000000     1.96000000
   H     48.69000000    35.76000000    -0.63000000
   H     47.84000000    34.46000000     1.78000000
   H     50.16000000    33.70000000     0.03000000
   H     49.34000000    32.83000000     2.55000000
   H     47.57000000    32.44000000     1.16000000
   H     48.03000000    32.70000000    -0.51000000
   H     48.94000000    31.53000000     0.26000000
   N     49.99000000    35.69000000     2.99000000
   C     50.66000000    36.66000000     3.83000000
   C     51.95000000    37.17000000     3.20000000
   O     52.34000000    38.31000000     3.45000000
   C     50.83000000    36.21000000     5.28000000
   C     51.02000000    37.44000000     6.16000000
   C     51.77000000    35.04000000     5.55000000
   C     50.70000000    37.31000000     7.65000000
   H     50.18000000    34.71000000     3.15000000
   H     50.02000000    37.55000000     3.78000000
   H     49.86000000    35.84000000     5.60000000
   H     50.38000000    38.21000000     5.74000000
   H     52.00000000    37.90000000     6.03000000
   H     51.74000000    34.85000000     6.62000000
   H     51.54000000    34.10000000     5.06000000
   H     52.83000000    35.20000000     5.34000000
   H     49.79000000    36.72000000     7.80000000
   H     51.46000000    36.84000000     8.27000000
   H     50.55000000    38.33000000     8.01000000
   N     52.72000000    36.29000000     2.56000000
   C     54.14000000    36.35000000     2.25000000
   C     55.06000000    36.30000000     3.46000000
   O     55.74000000    35.30000000     3.73000000
   C     54.50000000    37.35000000     1.15000000
   C     55.90000000    37.05000000     0.62000000
   O     54.49000000    38.74000000     1.39000000
   H     52.21000000    35.46000000     2.32000000
   H     54.38000000    35.39000000     1.79000000
   H     53.80000000    37.18000000     0.33000000
   H     54.95000000    39.06000000     0.62000000
   H     55.91000000    36.12000000     0.04000000
   H     56.25000000    37.81000000    -0.08000000
   H     56.66000000    36.95000000     1.39000000
   N     55.19000000    37.35000000     4.27000000
   C     56.01000000    37.50000000     5.45000000
   C     57.52000000    37.41000000     5.32000000
   O     58.07000000    36.67000000     4.50000000
   C     55.56000000    36.62000000     6.62000000
   C     55.87000000    37.22000000     8.00000000
   O     56.20000000    35.37000000     6.49000000
   H     54.79000000    38.21000000     3.93000000
   H     55.74000000    38.46000000     5.88000000
   H     54.48000000    36.56000000     6.60000000
   H     56.21000000    35.22000000     5.54000000
   H     55.44000000    36.53000000     8.73000000
   H     56.94000000    37.34000000     8.09000000
   H     55.39000000    38.19000000     8.09000000
   N     58.28000000    38.25000000     6.03000000
   C     59.73000000    38.28000000     6.03000000
   C     60.35000000    39.59000000     5.56000000
   O     61.38000000    39.39000000     4.92000000
   C     60.30000000    37.81000000     7.36000000
   C     60.01000000    36.34000000     7.65000000
   C     60.54000000    35.34000000     6.62000000
   C     60.11000000    33.90000000     6.89000000
   N     60.44000000    33.09000000     5.71000000
   H     57.81000000    38.86000000     6.68000000
   H     60.10000000    37.66000000     5.20000000
   H     59.79000000    38.44000000     8.09000000
   H     61.37000000    38.01000000     7.43000000
   H     58.94000000    36.20000000     7.81000000
   H     60.44000000    36.18000000     8.64000000
   H     61.61000000    35.45000000     6.51000000
   H     60.18000000    35.71000000     5.66000000
   H     59.04000000    33.91000000     7.08000000
   H     60.72000000    33.61000000     7.74000000
   H     61.30000000    33.35000000     5.24000000
   H     60.63000000    32.13000000     5.96000000
   H     59.67000000    33.00000000     5.06000000
   N     59.86000000    40.83000000     5.62000000
   C     58.67000000    41.43000000     6.19000000
   C     58.31000000    40.98000000     7.60000000
   O     57.42000000    40.18000000     7.86000000
   C     57.47000000    41.32000000     5.25000000
   C     56.11000000    41.87000000     5.68000000
   C     55.00000000    41.62000000     4.67000000
   O     54.90000000    40.50000000     4.11000000
   O     54.17000000    42.50000000     4.35000000
   H     60.49000000    41.46000000     5.15000000
   H     58.94000000    42.47000000     6.36000000
   H     57.26000000    40.31000000     4.89000000
   H     57.81000000    41.97000000     4.44000000
   H     56.20000000    42.93000000     5.89000000
   H     55.80000000    41.34000000     6.58000000
   N     59.01000000    41.52000000     8.61000000
   C     58.70000000    41.33000000    10.01000000
   H     57.66100000    41.01700000    10.11200000
   H     59.35200000    40.56200000    10.42600000
   H     58.85200000    42.26700000    10.54700000
   H     59.84000000    42.07000000     8.46000000
  Ca     52.95000000    40.75000000     2.44000000
   O     52.96000000    40.50000000    -0.36000000
   H     53.56000000    40.03000000    -0.93000000
   H     52.13000000    40.02000000    -0.43000000
   O     51.23000000    41.31000000     4.39000000
   H     50.86000000    41.59000000     5.23000000
   H     50.49000000    40.93000000     3.92000000
   O     52.19000000    42.98000000     1.48000000
   H     51.62000000    43.58000000     1.96000000
   H     52.43000000    43.47000000     0.69000000
   O     55.32000000    41.95000000     1.14000000
   H     55.42000000    42.04000000     0.20000000
   H     55.74000000    42.73000000     1.51000000

Ca 1.70



