%chk=loop4.cluster114.chk
%nprocshared=48
%mem=10GB
%nosave
#b3lyp/svp scf=(tight,noincore) Test 
#IOP(5/87=12) Density=Current Pop=(MK,readradii) iop(6/33=2) iop(6/42=6)

loop4.cluster114 

   -3  1 
   C    101.53000000    79.44000000    34.75000000
   C    102.72000000    78.52000000    35.00000000
   O    102.73000000    77.33000000    34.72000000
   H    100.70000000    79.14100000    35.39000000
   H    101.81100000    80.46800000    34.97700000
   H    101.22700000    79.36800000    33.70500000
   N    103.84000000    79.07000000    35.48000000
   C    105.21000000    78.66000000    35.72000000
   C    106.00000000    78.11000000    34.54000000
   O    107.17000000    77.74000000    34.69000000
   C    105.31000000    77.82000000    36.99000000
   C    104.56000000    76.50000000    37.11000000
   O    104.04000000    76.15000000    38.19000000
   O    104.57000000    75.70000000    36.14000000
   H    103.73000000    80.06000000    35.66000000
   H    105.77000000    79.58000000    35.88000000
   H    104.92000000    78.47000000    37.77000000
   H    106.36000000    77.65000000    37.21000000
   N    105.41000000    78.06000000    33.35000000
   C    106.00000000    77.58000000    32.11000000
   C    106.08000000    76.06000000    32.07000000
   O    105.36000000    75.38000000    32.81000000
   C    105.28000000    78.23000000    30.94000000
   C    105.55000000    79.73000000    30.88000000
   C    103.79000000    77.89000000    30.87000000
   C    105.14000000    80.34000000    29.54000000
   H    104.41000000    78.22000000    33.34000000
   H    107.02000000    77.96000000    32.12000000
   H    105.70000000    77.73000000    30.07000000
   H    106.61000000    79.86000000    31.09000000
   H    105.04000000    80.29000000    31.68000000
   H    103.17000000    78.37000000    31.63000000
   H    103.33000000    78.19000000    29.93000000
   H    103.60000000    76.84000000    31.08000000
   H    104.06000000    80.42000000    29.42000000
   H    105.66000000    81.30000000    29.52000000
   H    105.63000000    79.74000000    28.78000000
   N    106.93000000    75.49000000    31.22000000
   C    107.16000000    74.07000000    31.05000000
   C    107.52000000    73.37000000    32.36000000
   O    108.40000000    73.78000000    33.12000000
   C    108.35000000    73.82000000    30.12000000
   C    109.62000000    74.60000000    30.44000000
   O    109.63000000    75.84000000    30.26000000
   O    110.59000000    73.99000000    30.94000000
   H    107.36000000    76.14000000    30.58000000
   H    106.23000000    73.66000000    30.66000000
   H    108.00000000    74.08000000    29.12000000
   H    108.65000000    72.78000000    30.04000000
   N    106.94000000    72.20000000    32.65000000
   C    106.04000000    71.45000000    31.81000000
   C    104.59000000    71.90000000    31.69000000
   O    104.09000000    72.60000000    32.57000000
   H    107.04000000    71.95000000    33.63000000
   H    105.93000000    70.47000000    32.28000000
   H    106.46000000    71.25000000    30.83000000
   N    103.83000000    71.47000000    30.68000000
   C    104.39000000    70.85000000    29.50000000
   C    103.51000000    71.12000000    28.29000000
   O    102.30000000    70.90000000    28.34000000
   C    104.36000000    69.34000000    29.71000000
   C    104.97000000    68.59000000    28.54000000
   O    106.08000000    69.02000000    28.16000000
   O    104.36000000    67.80000000    27.79000000
   H    102.85000000    71.70000000    30.59000000
   H    105.42000000    71.04000000    29.20000000
   H    103.42000000    68.94000000    30.09000000
   H    105.01000000    69.18000000    30.57000000
   N    104.04000000    71.59000000    27.16000000
   C    105.37000000    72.14000000    27.01000000
   C    105.48000000    72.93000000    25.71000000
   O    106.46000000    72.74000000    24.99000000
   H    103.57000000    71.56000000    26.26000000
   H    106.25000000    71.50000000    27.01000000
   H    105.50000000    72.88000000    27.80000000
   N    104.39000000    73.57000000    25.28000000
   C    104.16000000    74.18000000    23.99000000
   C    103.89000000    75.67000000    24.07000000
   O    103.82000000    76.41000000    23.09000000
   C    102.98000000    73.49000000    23.31000000
   C    103.12000000    71.99000000    23.06000000
   C    101.84000000    71.41000000    22.46000000
   N    100.84000000    71.13000000    23.29000000
   O    101.74000000    71.30000000    21.24000000
   H    103.68000000    73.58000000    26.00000000
   H    105.01000000    73.95000000    23.34000000
   H    102.93000000    74.04000000    22.37000000
   H    102.05000000    73.69000000    23.85000000
   H    103.38000000    71.35000000    23.91000000
   H    104.03000000    71.87000000    22.49000000
   H    100.79000000    71.60000000    24.19000000
   H     99.94000000    70.76000000    23.00000000
   N    103.83000000    76.19000000    25.30000000
   C    103.46000000    77.58000000    25.50000000
   C    102.18000000    77.65000000    26.31000000
   O    102.10000000    77.10000000    27.41000000
   C    104.54000000    78.34000000    26.27000000
   C    104.08000000    79.79000000    26.28000000
   C    105.92000000    78.33000000    25.61000000
   H    104.19000000    75.59000000    26.03000000
   H    103.34000000    78.09000000    24.54000000
   H    104.63000000    77.95000000    27.28000000
   H    103.76000000    80.22000000    25.33000000
   H    103.27000000    79.79000000    27.01000000
   H    104.76000000    80.47000000    26.78000000
   H    105.99000000    79.00000000    24.76000000
   H    106.69000000    78.65000000    26.32000000
   H    106.13000000    77.30000000    25.30000000
   N    101.17000000    78.36000000    25.79000000
   C     99.87000000    78.46000000    26.43000000
   C     98.96000000    77.26000000    26.24000000
   O     98.01000000    77.05000000    26.99000000
   C     99.25000000    79.70000000    25.80000000
   C     98.00000000    80.18000000    26.53000000
   N     96.94000000    80.47000000    25.76000000
   O     97.90000000    80.32000000    27.74000000
   H    101.26000000    78.69000000    24.84000000
   H    100.03000000    78.65000000    27.50000000
   H     99.12000000    79.60000000    24.72000000
   H     99.91000000    80.56000000    25.82000000
   H     97.09000000    80.51000000    24.76000000
   H     96.21000000    80.97000000    26.25000000
   N     99.24000000    76.45000000    25.22000000
   C     98.68000000    75.12000000    25.12000000
   C     99.00000000    74.19000000    26.28000000
   O    100.13000000    74.09000000    26.74000000
   C     99.14000000    74.45000000    23.83000000
   C     98.34000000    74.83000000    22.60000000
   C     98.81000000    75.71000000    21.62000000
   C     97.05000000    74.30000000    22.44000000
   C     98.09000000    76.08000000    20.48000000
   C     96.26000000    74.73000000    21.37000000
   C     96.79000000    75.54000000    20.36000000
   O     96.01000000    75.82000000    19.27000000
   H     99.81000000    76.81000000    24.47000000
   H     97.59000000    75.17000000    25.07000000
   H     98.99000000    73.38000000    23.96000000
   H    100.18000000    74.67000000    23.58000000
   H     99.84000000    76.04000000    21.69000000
   H     96.62000000    73.63000000    23.17000000
   H     98.59000000    76.64000000    19.71000000
   H     95.26000000    74.34000000    21.23000000
   H     96.25000000    76.72000000    19.07000000
   N     98.01000000    73.41000000    26.72000000
   C     97.88000000    72.70000000    27.97000000
   C     98.13000000    73.57000000    29.19000000
   O     98.20000000    73.07000000    30.30000000
   C     98.90000000    71.56000000    28.06000000
   C     98.85000000    70.55000000    26.93000000
   C     97.45000000    69.96000000    26.84000000
   O     96.83000000    70.15000000    25.77000000
   O     97.11000000    69.17000000    27.75000000
   H     97.21000000    73.43000000    26.09000000
   H     96.89000000    72.25000000    28.10000000
   H     98.67000000    71.02000000    28.98000000
   H     99.91000000    71.96000000    28.11000000
   H     99.62000000    69.78000000    27.00000000
   H     99.08000000    71.02000000    25.97000000
   N     98.03000000    74.90000000    29.03000000
   C     98.01000000    75.79000000    30.17000000
   C     96.82000000    76.73000000    30.22000000
   O     96.50000000    77.21000000    31.31000000
   C     99.35000000    76.53000000    30.14000000
   C    100.64000000    75.79000000    30.44000000
   C    100.96000000    75.38000000    31.87000000
   O    102.13000000    75.01000000    32.10000000
   O    100.01000000    75.41000000    32.69000000
   H     98.14000000    75.31000000    28.12000000
   H     98.12000000    75.28000000    31.12000000
   H     99.36000000    77.32000000    30.89000000
   H     99.49000000    77.03000000    29.18000000
   H    101.46000000    76.32000000    29.95000000
   H    100.63000000    74.83000000    29.93000000
   N     96.17000000    77.00000000    29.09000000
   C     94.78000000    77.39000000    28.93000000
   H     94.18700000    76.96000000    29.73700000
   H     94.70100000    78.47700000    28.96100000
   H     94.40800000    77.02500000    27.97300000
   H     96.72000000    76.71000000    28.29000000
  Ca    103.26200000    74.45000000    34.33000000
   O    102.49200000    74.15000000    36.91000000
   H    103.15200000    74.76000000    37.24000000
   H    101.66200000    74.47000000    37.26000000
   O    104.94200000    72.70000000    35.54000000
   H    105.80200000    72.70000000    35.12000000
   H    105.09200000    72.37000000    36.42000000
   O    101.61200000    72.47000000    34.30000000
   H    100.73200000    72.53000000    33.94000000
   H    101.62200000    71.65000000    34.79000000

Ca 1.70



