%chk=loop1.cluster133.chk
%nprocshared=48
%mem=10GB
%nosave
#b3lyp/svp scf=(tight,noincore) Test 
#IOP(5/87=12) Density=Current Pop=(MK,readradii) iop(6/33=2) iop(6/42=6)

loop1.cluster133 

   0  1 
   C     46.70000000    38.23000000     6.31000000
   C     47.18000000    37.71000000     4.96000000
   O     48.11000000    38.19000000     4.30000000
   H     45.67500000    37.90300000     6.48100000
   H     47.34200000    37.83900000     7.10000000
   H     46.73900000    39.31900000     6.31500000
   N     46.52000000    36.66000000     4.47000000
   C     46.86000000    35.83000000     3.33000000
   C     46.37000000    36.43000000     2.02000000
   O     45.49000000    35.88000000     1.35000000
   C     46.38000000    34.39000000     3.46000000
   C     44.91000000    34.23000000     3.84000000
   O     44.21000000    33.42000000     3.19000000
   O     44.46000000    34.83000000     4.83000000
   H     45.71000000    36.39000000     5.01000000
   H     47.95000000    35.86000000     3.38000000
   H     46.91000000    33.97000000     4.31000000
   H     46.72000000    33.79000000     2.61000000
   N     46.83000000    37.62000000     1.64000000
   C     46.41000000    38.48000000     0.55000000
   C     47.59000000    39.02000000    -0.26000000
   O     48.07000000    40.12000000     0.01000000
   C     45.56000000    39.56000000     1.21000000
   C     44.18000000    39.09000000     1.64000000
   C     43.25000000    38.76000000     0.48000000
   C     42.01000000    37.99000000     0.93000000
   N     42.26000000    36.56000000     1.15000000
   H     47.57000000    37.99000000     2.22000000
   H     45.84000000    37.90000000    -0.17000000
   H     45.39000000    40.34000000     0.46000000
   H     45.96000000    40.10000000     2.07000000
   H     43.71000000    39.92000000     2.17000000
   H     44.33000000    38.21000000     2.26000000
   H     43.84000000    38.36000000    -0.35000000
   H     43.03000000    39.76000000     0.11000000
   H     41.29000000    38.00000000     0.11000000
   H     41.66000000    38.55000000     1.80000000
   H     41.44000000    36.05000000     1.45000000
   H     42.53000000    36.24000000     0.23000000
   H     43.02000000    36.38000000     1.79000000
   N     48.27000000    38.36000000    -1.19000000
   C     48.00000000    37.07000000    -1.78000000
   C     46.69000000    37.03000000    -2.55000000
   O     45.85000000    37.93000000    -2.41000000
   C     48.26000000    35.87000000    -0.88000000
   C     49.58000000    36.13000000    -0.16000000
   O     50.64000000    36.02000000    -0.80000000
   O     49.64000000    36.37000000     1.07000000
   H     49.16000000    38.81000000    -1.38000000
   H     48.75000000    36.95000000    -2.56000000
   H     48.27000000    34.96000000    -1.48000000
   H     47.43000000    35.67000000    -0.20000000
   N     46.34000000    36.00000000    -3.32000000
   C     46.94000000    34.70000000    -3.54000000
   C     46.50000000    34.03000000    -4.83000000
   O     46.00000000    34.61000000    -5.79000000
   H     45.48000000    36.14000000    -3.83000000
   H     46.67000000    34.06000000    -2.70000000
   H     48.00000000    34.85000000    -3.71000000
   N     46.67000000    32.71000000    -4.97000000
   C     47.12000000    31.67000000    -4.06000000
   C     45.98000000    31.25000000    -3.14000000
   O     44.81000000    31.48000000    -3.42000000
   C     47.61000000    30.44000000    -4.81000000
   C     48.59000000    29.59000000    -4.02000000
   O     49.08000000    29.88000000    -2.91000000
   O     48.92000000    28.49000000    -4.51000000
   H     46.30000000    32.46000000    -5.87000000
   H     47.95000000    32.14000000    -3.53000000
   H     48.20000000    30.78000000    -5.67000000
   H     46.77000000    29.84000000    -5.15000000
   N     46.43000000    30.50000000    -2.13000000
   C     45.50000000    29.99000000    -1.15000000
   C     45.98000000    30.35000000     0.25000000
   O     45.22000000    30.22000000     1.21000000
   H     47.40000000    30.23000000    -2.11000000
   H     45.41000000    28.90000000    -1.21000000
   H     44.55000000    30.52000000    -1.28000000
   N     47.26000000    30.67000000     0.45000000
   C     47.88000000    30.91000000     1.73000000
   C     48.81000000    32.12000000     1.72000000
   O     49.15000000    32.70000000     0.69000000
   C     48.69000000    29.66000000     2.07000000
   C     47.84000000    28.40000000     1.97000000
   O     49.02000000    29.73000000     3.44000000
   H     47.88000000    30.73000000    -0.34000000
   H     47.09000000    31.09000000     2.46000000
   H     49.57000000    29.40000000     1.48000000
   H     49.73000000    29.12000000     3.67000000
   H     47.62000000    28.09000000     0.95000000
   H     48.31000000    27.60000000     2.55000000
   H     46.86000000    28.63000000     2.39000000
   N     49.28000000    32.50000000     2.91000000
   C     50.04000000    33.68000000     3.26000000
   C     51.39000000    33.84000000     2.58000000
   O     51.82000000    34.99000000     2.63000000
   C     50.23000000    33.60000000     4.77000000
   C     50.89000000    34.74000000     5.53000000
   C     50.95000000    32.31000000     5.19000000
   C     50.04000000    35.98000000     5.78000000
   H     49.11000000    31.79000000     3.61000000
   H     49.43000000    34.58000000     3.14000000
   H     49.23000000    33.49000000     5.19000000
   H     51.68000000    35.25000000     4.98000000
   H     51.30000000    34.38000000     6.48000000
   H     52.01000000    32.41000000     4.95000000
   H     50.82000000    32.20000000     6.27000000
   H     50.54000000    31.42000000     4.71000000
   H     50.56000000    36.71000000     6.41000000
   H     49.69000000    36.47000000     4.86000000
   H     49.25000000    35.57000000     6.40000000
   N     52.06000000    32.81000000     2.06000000
   C     53.46000000    32.68000000     1.73000000
   C     54.37000000    32.97000000     2.91000000
   O     55.09000000    32.13000000     3.45000000
   C     53.82000000    33.38000000     0.42000000
   C     55.32000000    33.26000000     0.17000000
   O     53.57000000    34.76000000     0.41000000
   H     51.57000000    31.93000000     2.17000000
   H     53.62000000    31.63000000     1.49000000
   H     53.20000000    32.93000000    -0.36000000
   H     53.36000000    35.03000000    -0.49000000
   H     55.52000000    33.58000000    -0.86000000
   H     55.88000000    33.98000000     0.77000000
   H     55.67000000    32.24000000     0.28000000
   N     54.27000000    34.22000000     3.37000000
   C     54.96000000    34.79000000     4.51000000
   C     56.46000000    34.94000000     4.28000000
   O     56.88000000    34.64000000     3.17000000
   C     54.61000000    34.07000000     5.81000000
   C     54.45000000    34.94000000     7.05000000
   O     55.54000000    33.06000000     6.11000000
   H     53.42000000    34.67000000     3.04000000
   H     54.57000000    35.81000000     4.53000000
   H     53.65000000    33.55000000     5.72000000
   H     55.52000000    32.43000000     5.38000000
   H     55.41000000    35.41000000     7.30000000
   H     53.64000000    35.66000000     6.96000000
   H     54.22000000    34.30000000     7.90000000
   N     57.31000000    35.49000000     5.15000000
   C     58.70000000    35.72000000     4.82000000
   C     59.13000000    37.01000000     4.12000000
   O     60.11000000    36.92000000     3.39000000
   C     59.52000000    35.40000000     6.07000000
   C     59.09000000    34.36000000     7.10000000
   C     58.93000000    32.97000000     6.50000000
   C     58.50000000    31.90000000     7.51000000
   N     58.49000000    30.61000000     6.81000000
   H     56.92000000    35.99000000     5.93000000
   H     58.95000000    34.92000000     4.13000000
   H     59.50000000    36.38000000     6.56000000
   H     60.58000000    35.23000000     5.94000000
   H     58.13000000    34.67000000     7.51000000
   H     59.73000000    34.52000000     7.97000000
   H     59.88000000    32.57000000     6.13000000
   H     58.15000000    33.01000000     5.75000000
   H     57.52000000    32.06000000     7.96000000
   H     59.19000000    31.76000000     8.34000000
   H     57.95000000    30.63000000     5.96000000
   H     59.40000000    30.43000000     6.41000000
   H     58.32000000    29.81000000     7.40000000
   N     58.53000000    38.20000000     4.16000000
   C     57.28000000    38.71000000     4.69000000
   C     56.93000000    38.30000000     6.11000000
   O     55.90000000    37.64000000     6.28000000
   C     56.17000000    38.43000000     3.69000000
   C     54.92000000    39.26000000     3.99000000
   C     53.74000000    38.67000000     3.22000000
   O     53.30000000    37.54000000     3.55000000
   O     53.21000000    39.27000000     2.27000000
   H     59.10000000    38.91000000     3.72000000
   H     57.47000000    39.78000000     4.80000000
   H     55.89000000    37.38000000     3.57000000
   H     56.51000000    38.81000000     2.73000000
   H     55.16000000    40.24000000     3.60000000
   H     54.72000000    39.40000000     5.05000000
   N     57.76000000    38.67000000     7.09000000
   C     57.45000000    38.76000000     8.50000000
   H     56.41000000    38.47800000     8.66100000
   H     58.10000000    38.08700000     9.05900000
   H     57.60500000    39.78300000     8.84200000
   H     58.62000000    39.10000000     6.78000000
  Ca     52.14000000    37.05000000     1.11000000
   O     52.75000000    37.91000000    -1.45500000
   H     52.02000000    37.86000000    -2.07500000
   H     53.51000000    38.11000000    -1.99500000
   O     50.63000000    38.26000000     3.09000000
   H     51.24000000    37.89000000     3.72000000
   H     49.77000000    38.18000000     3.50000000
   O     50.74000000    39.42000000     0.31000000
   H     50.95000000    40.05000000    -0.38000000
   H     49.81000000    39.56000000     0.49000000
   O     54.78000000    37.37000000     0.75000000
   H     55.15000000    37.93000000     0.07000000
   H     55.48000000    36.73000000     0.93000000

Ca 1.70



