%chk=loop3.cluster27.chk
%nprocshared=48
%mem=10GB
%nosave
#b3lyp/svp scf=(tight,noincore) Test 
#IOP(5/87=12) Density=Current Pop=(MK,readradii) iop(6/33=2) iop(6/42=6)

loop3.cluster27 

   0  1 
   C     62.40000000    47.99000000    41.29000000
   C     61.81000000    47.42000000    42.57000000
   O     62.22000000    46.34000000    43.01000000
   H     63.41600000    47.61600000    41.16100000
   H     61.79000000    47.68300000    40.44000000
   H     62.41900000    49.07800000    41.35100000
   N     60.76000000    48.08000000    43.08000000
   C     59.84000000    47.55000000    44.07000000
   C     58.73000000    46.77000000    43.38000000
   O     57.55000000    47.05000000    43.54000000
   C     59.44000000    48.71000000    44.97000000
   C     58.50000000    48.39000000    46.12000000
   O     57.59000000    49.22000000    46.37000000
   O     58.74000000    47.38000000    46.81000000
   H     60.59000000    48.98000000    42.67000000
   H     60.36000000    46.84000000    44.71000000
   H     58.96000000    49.40000000    44.28000000
   H     60.30000000    49.26000000    45.35000000
   N     59.13000000    45.72000000    42.65000000
   C     58.18000000    44.82000000    42.03000000
   C     57.41000000    44.08000000    43.11000000
   O     56.19000000    43.92000000    43.02000000
   C     58.78000000    43.94000000    40.95000000
   C     57.70000000    43.18000000    40.18000000
   C     58.10000000    42.40000000    38.93000000
   C     57.16000000    41.34000000    38.37000000
   N     55.86000000    41.90000000    37.94000000
   H     60.11000000    45.69000000    42.39000000
   H     57.42000000    45.38000000    41.49000000
   H     59.48000000    43.20000000    41.35000000
   H     59.20000000    44.59000000    40.18000000
   H     56.90000000    43.84000000    39.82000000
   H     57.26000000    42.46000000    40.86000000
   H     59.01000000    41.82000000    39.08000000
   H     58.30000000    43.22000000    38.25000000
   H     56.97000000    40.64000000    39.18000000
   H     57.70000000    40.80000000    37.60000000
   H     55.23000000    41.22000000    37.53000000
   H     55.39000000    42.38000000    38.70000000
   H     55.99000000    42.67000000    37.30000000
   N     58.13000000    43.68000000    44.17000000
   C     57.49000000    43.26000000    45.39000000
   C     56.46000000    44.22000000    45.97000000
   O     55.63000000    43.68000000    46.70000000
   C     58.52000000    43.01000000    46.49000000
   C     59.32000000    44.25000000    46.88000000
   O     60.22000000    44.73000000    46.16000000
   O     59.14000000    44.66000000    48.04000000
   H     59.12000000    43.82000000    43.99000000
   H     56.99000000    42.32000000    45.16000000
   H     59.23000000    42.23000000    46.23000000
   H     58.01000000    42.67000000    47.39000000
   N     56.40000000    45.54000000    45.76000000
   C     55.24000000    46.34000000    46.07000000
   C     55.22000000    46.74000000    47.54000000
   O     54.10000000    46.97000000    47.98000000
   H     57.19000000    45.91000000    45.25000000
   H     54.34000000    45.79000000    45.78000000
   H     55.38000000    47.22000000    45.43000000
   N     56.35000000    46.76000000    48.25000000
   C     56.47000000    47.15000000    49.65000000
   C     56.71000000    48.63000000    49.91000000
   O     56.73000000    49.00000000    51.08000000
   C     57.41000000    46.20000000    50.39000000
   C     58.77000000    46.76000000    50.78000000
   N     59.25000000    46.40000000    51.97000000
   O     59.46000000    47.37000000    49.96000000
   H     57.16000000    46.69000000    47.66000000
   H     55.51000000    46.88000000    50.10000000
   H     57.60000000    45.30000000    49.81000000
   H     56.94000000    45.88000000    51.32000000
   H     58.67000000    45.82000000    52.55000000
   H     60.13000000    46.73000000    52.33000000
   N     56.72000000    49.50000000    48.90000000
   C     56.81000000    50.94000000    49.05000000
   C     58.19000000    51.56000000    49.05000000
   O     58.23000000    52.79000000    48.96000000
   H     56.74000000    49.18000000    47.94000000
   H     56.34000000    51.25000000    49.99000000
   H     56.17000000    51.48000000    48.35000000
   N     59.24000000    50.74000000    49.12000000
   C     60.64000000    51.09000000    49.29000000
   C     61.47000000    50.24000000    48.34000000
   O     61.22000000    49.05000000    48.25000000
   C     61.16000000    50.91000000    50.71000000
   C     60.20000000    51.31000000    51.80000000
   C     59.65000000    52.60000000    51.78000000
   C     59.69000000    50.38000000    52.71000000
   C     58.76000000    52.95000000    52.80000000
   C     58.78000000    50.71000000    53.72000000
   C     58.33000000    52.04000000    53.79000000
   O     57.45000000    52.53000000    54.71000000
   H     59.06000000    49.76000000    49.23000000
   H     60.87000000    52.12000000    49.03000000
   H     62.09000000    51.46000000    50.83000000
   H     61.37000000    49.87000000    50.97000000
   H     59.83000000    53.34000000    51.02000000
   H     60.10000000    49.38000000    52.69000000
   H     58.52000000    54.01000000    52.85000000
   H     58.52000000    49.93000000    54.42000000
   H     56.97000000    51.83000000    55.16000000
   N     62.53000000    50.79000000    47.74000000
   C     63.57000000    50.06000000    47.04000000
   C     64.81000000    49.79000000    47.88000000
   O     65.31000000    50.69000000    48.54000000
   C     63.89000000    50.71000000    45.70000000
   C     62.77000000    50.95000000    44.69000000
   C     64.87000000    49.81000000    44.95000000
   C     63.21000000    51.93000000    43.60000000
   H     62.58000000    51.79000000    47.60000000
   H     63.13000000    49.10000000    46.76000000
   H     64.48000000    51.60000000    45.91000000
   H     61.92000000    51.46000000    45.15000000
   H     62.40000000    50.04000000    44.22000000
   H     64.50000000    48.79000000    44.91000000
   H     64.98000000    50.08000000    43.90000000
   H     65.80000000    49.83000000    45.53000000
   H     62.45000000    52.04000000    42.82000000
   H     63.37000000    52.96000000    43.91000000
   H     64.14000000    51.69000000    43.08000000
   N     65.27000000    48.54000000    47.82000000
   C     66.48000000    48.09000000    48.47000000
   C     67.74000000    48.24000000    47.62000000
   O     67.66000000    48.66000000    46.47000000
   C     66.29000000    46.68000000    49.01000000
   O     66.06000000    45.80000000    47.93000000
   H     64.74000000    47.85000000    47.30000000
   H     66.67000000    48.66000000    49.38000000
   H     65.39000000    46.74000000    49.63000000
   H     67.21000000    46.47000000    49.55000000
   H     65.32000000    45.23000000    48.16000000
   N     68.88000000    47.83000000    48.18000000
   C     70.10000000    47.77000000    47.40000000
   C     70.04000000    46.72000000    46.30000000
   O     70.34000000    46.95000000    45.13000000
   C     71.27000000    47.51000000    48.33000000
   H     69.01000000    47.72000000    49.17000000
   H     70.23000000    48.76000000    46.95000000
   H     72.08000000    47.11000000    47.72000000
   H     71.59000000    48.49000000    48.69000000
   H     70.94000000    46.86000000    49.14000000
   N     69.70000000    45.49000000    46.67000000
   C     69.58000000    44.36000000    45.77000000
   C     68.49000000    44.47000000    44.71000000
   O     68.71000000    44.11000000    43.56000000
   C     69.51000000    43.20000000    46.76000000
   H     69.46000000    45.37000000    47.65000000
   H     70.53000000    44.24000000    45.25000000
   H     69.64000000    42.32000000    46.13000000
   H     70.30000000    43.26000000    47.50000000
   H     68.60000000    43.06000000    47.34000000
   N     67.38000000    45.16000000    44.98000000
   C     66.35000000    45.50000000    44.01000000
   C     66.83000000    46.42000000    42.89000000
   O     66.35000000    46.37000000    41.77000000
   C     65.18000000    46.15000000    44.74000000
   C     64.28000000    45.09000000    45.36000000
   C     63.30000000    45.75000000    46.32000000
   O     62.77000000    44.97000000    47.15000000
   O     62.95000000    46.94000000    46.23000000
   H     67.16000000    45.36000000    45.94000000
   H     66.03000000    44.58000000    43.52000000
   H     64.50000000    46.75000000    44.15000000
   H     65.49000000    46.83000000    45.53000000
   H     64.87000000    44.30000000    45.83000000
   H     63.58000000    44.61000000    44.68000000
   N     67.72000000    47.36000000    43.22000000
   C     68.48000000    48.18000000    42.29000000
   H     69.46400000    47.73700000    42.13700000
   H     67.95300000    48.23300000    41.33700000
   H     68.59400000    49.18400000    42.69900000
   H     67.97000000    47.52000000    44.19000000
  Ca     60.91000000    46.55000000    47.95000000
   O     61.54000000    44.41000000    49.89000000
   H     61.19000000    44.63000000    50.75000000
   H     62.12000000    43.67000000    50.04000000
   O     62.87000000    46.89000000    49.92000000
   H     63.09000000    46.13000000    50.45000000
   H     63.36000000    47.61000000    50.33000000

Ca 1.70



