%chk=loop2.cluster193.chk
%nprocshared=48
%mem=10GB
%nosave
#b3lyp/svp scf=(tight,noincore) Test 
#IOP(5/87=12) Density=Current Pop=(MK,readradii) iop(6/33=2) iop(6/42=6)

loop2.cluster193 

   -2  1 
   C     85.91000000    62.84000000     9.63000000
   C     87.18000000    62.50000000     8.86000000
   O     88.25000000    62.96000000     9.24000000
   H     85.08900000    62.22100000     9.26700000
   H     86.06600000    62.64900000    10.69200000
   H     85.66500000    63.89200000     9.48100000
   N     87.11000000    61.62000000     7.86000000
   C     88.27000000    61.28000000     7.06000000
   C     88.93000000    62.40000000     6.27000000
   O     88.26000000    63.08000000     5.49000000
   C     87.91000000    60.12000000     6.15000000
   C     89.12000000    59.49000000     5.46000000
   O     90.22000000    59.69000000     6.01000000
   O     89.00000000    58.77000000     4.45000000
   H     86.19000000    61.30000000     7.57000000
   H     89.00000000    60.81000000     7.72000000
   H     87.21000000    60.47000000     5.40000000
   H     87.43000000    59.28000000     6.66000000
   N     90.24000000    62.53000000     6.48000000
   C     91.12000000    63.39000000     5.71000000
   C     91.93000000    62.83000000     4.55000000
   O     92.38000000    63.65000000     3.74000000
   C     91.96000000    64.27000000     6.64000000
   H     90.65000000    61.97000000     7.21000000
   H     90.47000000    64.07000000     5.16000000
   H     91.38000000    64.84000000     7.36000000
   H     92.66000000    63.60000000     7.13000000
   H     92.47000000    65.11000000     6.16000000
   N     92.08000000    61.51000000     4.52000000
   C     93.19000000    60.84000000     3.86000000
   C     92.78000000    59.72000000     2.92000000
   O     93.63000000    59.27000000     2.14000000
   C     94.21000000    60.31000000     4.85000000
   C     93.55000000    59.43000000     5.91000000
   O     92.76000000    58.54000000     5.53000000
   O     93.73000000    59.66000000     7.12000000
   H     91.41000000    60.98000000     5.06000000
   H     93.66000000    61.52000000     3.14000000
   H     94.65000000    61.18000000     5.34000000
   H     94.98000000    59.70000000     4.37000000
   N     91.58000000    59.15000000     3.08000000
   C     91.08000000    58.05000000     2.28000000
   C     91.46000000    56.63000000     2.70000000
   O     91.35000000    55.76000000     1.84000000
   H     91.01000000    59.42000000     3.86000000
   H     91.27000000    58.26000000     1.23000000
   H     90.01000000    58.10000000     2.45000000
   N     91.89000000    56.39000000     3.94000000
   C     92.56000000    55.20000000     4.41000000
   C     91.68000000    54.12000000     5.03000000
   O     92.20000000    53.04000000     5.28000000
   C     93.79000000    55.49000000     5.27000000
   C     93.44000000    55.86000000     6.71000000
   N     94.41000000    55.99000000     7.60000000
   O     92.30000000    55.87000000     7.17000000
   H     91.99000000    57.22000000     4.51000000
   H     93.00000000    54.74000000     3.53000000
   H     94.35000000    56.31000000     4.83000000
   H     94.44000000    54.62000000     5.23000000
   H     95.40000000    55.97000000     7.39000000
   H     94.09000000    56.33000000     8.50000000
   N     90.36000000    54.29000000     5.13000000
   C     89.38000000    53.36000000     5.65000000
   C     89.32000000    53.21000000     7.17000000
   O     88.83000000    52.19000000     7.64000000
   H     89.98000000    55.19000000     4.88000000
   H     89.51000000    52.36000000     5.23000000
   H     88.39000000    53.67000000     5.34000000
   N     89.82000000    54.21000000     7.90000000
   C     89.88000000    54.18000000     9.35000000
   C     89.96000000    55.58000000     9.96000000
   O     90.55000000    56.50000000     9.41000000
   C     91.22000000    53.56000000     9.75000000
   C     91.28000000    52.03000000     9.75000000
   O     92.26000000    53.91000000     8.86000000
   H     90.34000000    54.94000000     7.44000000
   H     89.05000000    53.68000000     9.84000000
   H     91.50000000    53.83000000    10.76000000
   H     92.19000000    54.86000000     8.76000000
   H     91.33000000    51.68000000     8.72000000
   H     92.23000000    51.72000000    10.17000000
   H     90.39000000    51.68000000    10.27000000
   N     89.41000000    55.69000000    11.17000000
   C     89.48000000    56.83000000    12.06000000
   C     90.91000000    56.81000000    12.56000000
   O     91.39000000    55.96000000    13.31000000
   C     88.46000000    56.82000000    13.20000000
   C     87.05000000    56.38000000    12.81000000
   C     88.55000000    58.20000000    13.84000000
   C     86.10000000    56.16000000    13.99000000
   H     89.07000000    54.78000000    11.46000000
   H     89.38000000    57.64000000    11.34000000
   H     88.84000000    56.16000000    13.98000000
   H     87.20000000    55.39000000    12.37000000
   H     86.58000000    56.93000000    12.00000000
   H     88.50000000    58.90000000    13.01000000
   H     87.64000000    58.41000000    14.40000000
   H     89.46000000    58.26000000    14.44000000
   H     85.88000000    57.09000000    14.52000000
   H     85.17000000    55.75000000    13.59000000
   H     86.43000000    55.37000000    14.66000000
   N     91.67000000    57.83000000    12.15000000
   C     93.03000000    58.14000000    12.57000000
   C     92.92000000    59.08000000    13.76000000
   O     91.89000000    59.73000000    13.95000000
   C     93.88000000    58.80000000    11.49000000
   C     94.14000000    57.82000000    10.35000000
   O     93.31000000    57.76000000     9.42000000
   O     95.22000000    57.18000000    10.32000000
   H     91.20000000    58.47000000    11.53000000
   H     93.47000000    57.25000000    13.02000000
   H     94.81000000    59.16000000    11.93000000
   H     93.33000000    59.65000000    11.09000000
   N     93.88000000    59.17000000    14.67000000
   C     93.73000000    59.93000000    15.90000000
   C     93.49000000    61.41000000    15.63000000
   O     92.53000000    61.85000000    16.26000000
   C     94.84000000    59.78000000    16.93000000
   C     94.77000000    60.44000000    18.29000000
   C     95.16000000    61.78000000    18.36000000
   C     94.15000000    59.83000000    19.40000000
   C     95.06000000    62.48000000    19.56000000
   C     94.10000000    60.51000000    20.62000000
   C     94.64000000    61.80000000    20.71000000
   H     94.62000000    58.48000000    14.66000000
   H     92.88000000    59.51000000    16.42000000
   H     95.76000000    60.20000000    16.52000000
   H     95.06000000    58.72000000    17.02000000
   H     95.65000000    62.24000000    17.51000000
   H     93.86000000    58.79000000    19.38000000
   H     95.35000000    63.51000000    19.70000000
   H     93.73000000    59.98000000    21.48000000
   H     94.47000000    62.49000000    21.52000000
   N     94.15000000    62.14000000    14.72000000
   C     93.74000000    63.47000000    14.33000000
   C     92.30000000    63.66000000    13.89000000
   O     91.80000000    64.76000000    14.13000000
   C     94.65000000    63.66000000    13.12000000
   C     96.00000000    63.08000000    13.54000000
   C     95.46000000    61.81000000    14.19000000
   H     94.04000000    64.08000000    15.19000000
   H     94.25000000    63.25000000    12.20000000
   H     94.72000000    64.73000000    12.92000000
   H     96.57000000    62.95000000    12.62000000
   H     96.43000000    63.72000000    14.31000000
   H     95.49000000    60.97000000    13.50000000
   H     96.13000000    61.46000000    14.97000000
   N     91.67000000    62.62000000    13.33000000
   C     90.26000000    62.67000000    12.97000000
   C     89.44000000    62.31000000    14.20000000
   O     88.28000000    62.71000000    14.23000000
   C     90.07000000    61.55000000    11.95000000
   C     91.10000000    61.62000000    10.83000000
   C     90.92000000    60.69000000     9.64000000
   O     91.47000000    60.98000000     8.55000000
   O     90.39000000    59.57000000     9.82000000
   H     92.07000000    61.70000000    13.29000000
   H     90.01000000    63.67000000    12.59000000
   H     89.08000000    61.81000000    11.57000000
   H     90.12000000    60.58000000    12.45000000
   H     92.14000000    61.48000000    11.10000000
   H     91.03000000    62.65000000    10.48000000
   N     90.02000000    61.67000000    15.21000000
   C     89.32000000    61.46000000    16.46000000
   H     88.31900000    61.08100000    16.25600000
   H     89.86600000    60.73600000    17.06500000
   H     89.24700000    62.40400000    16.99900000
   H     90.96000000    61.34000000    15.04000000
  Ca     91.52000000    58.46000000     7.82000000
   O     89.55000000    56.84000000     6.79000000
   H     88.96000000    56.77000000     6.04000000
   H     88.99000000    57.13000000     7.51000000

Ca 1.70



