%chk=loop3.cluster28.chk
%nprocshared=48
%mem=10GB
%nosave
#b3lyp/svp scf=(tight,noincore) Test 
#IOP(5/87=12) Density=Current Pop=(MK,readradii) iop(6/33=2) iop(6/42=6)

loop3.cluster28 

   0  1 
   C     62.59000000    48.53000000    41.30000000
   C     61.79000000    47.86000000    42.41000000
   O     61.97000000    46.69000000    42.74000000
   H     63.57800000    48.07300000    41.23800000
   H     62.07100000    48.40300000    40.35000000
   H     62.69500000    49.59300000    41.51800000
   N     60.84000000    48.55000000    43.05000000
   C     59.85000000    48.03000000    43.97000000
   C     58.69000000    47.27000000    43.33000000
   O     57.57000000    47.77000000    43.30000000
   C     59.39000000    49.23000000    44.79000000
   C     58.45000000    48.86000000    45.94000000
   O     57.34000000    49.40000000    46.16000000
   O     58.86000000    47.92000000    46.64000000
   H     60.70000000    49.48000000    42.68000000
   H     60.39000000    47.35000000    44.63000000
   H     58.79000000    49.87000000    44.15000000
   H     60.28000000    49.81000000    45.05000000
   N     59.07000000    46.16000000    42.70000000
   C     58.14000000    45.29000000    42.02000000
   C     57.26000000    44.40000000    42.88000000
   O     56.24000000    43.96000000    42.37000000
   C     59.03000000    44.46000000    41.10000000
   C     58.40000000    43.30000000    40.33000000
   C     59.37000000    42.56000000    39.41000000
   C     58.67000000    41.66000000    38.41000000
   N     57.99000000    42.40000000    37.33000000
   H     60.05000000    45.92000000    42.62000000
   H     57.39000000    45.80000000    41.41000000
   H     59.95000000    44.07000000    41.52000000
   H     59.40000000    45.14000000    40.33000000
   H     57.70000000    43.86000000    39.70000000
   H     57.82000000    42.63000000    40.96000000
   H     59.97000000    41.97000000    40.09000000
   H     59.94000000    43.27000000    38.81000000
   H     57.98000000    40.96000000    38.89000000
   H     59.46000000    41.10000000    37.91000000
   H     57.09000000    42.79000000    37.59000000
   H     58.60000000    43.08000000    36.90000000
   H     57.81000000    41.79000000    36.55000000
   N     57.69000000    44.19000000    44.13000000
   C     56.99000000    43.65000000    45.28000000
   C     55.91000000    44.61000000    45.75000000
   O     54.99000000    44.11000000    46.41000000
   C     57.93000000    43.22000000    46.41000000
   C     58.90000000    44.30000000    46.87000000
   O     59.75000000    44.80000000    46.11000000
   O     58.87000000    44.67000000    48.06000000
   H     58.52000000    44.68000000    44.42000000
   H     56.57000000    42.73000000    44.87000000
   H     58.45000000    42.37000000    45.98000000
   H     57.36000000    42.84000000    47.26000000
   N     56.11000000    45.91000000    45.56000000
   C     55.21000000    47.00000000    45.87000000
   C     54.92000000    47.26000000    47.34000000
   O     53.81000000    46.95000000    47.75000000
   H     56.97000000    46.18000000    45.11000000
   H     54.32000000    47.00000000    45.24000000
   H     55.56000000    47.87000000    45.31000000
   N     55.88000000    47.76000000    48.13000000
   C     55.61000000    48.18000000    49.49000000
   C     56.07000000    49.62000000    49.60000000
   O     56.08000000    50.08000000    50.74000000
   C     56.28000000    47.19000000    50.44000000
   C     57.79000000    47.37000000    50.54000000
   N     58.21000000    47.15000000    51.78000000
   O     58.50000000    47.62000000    49.57000000
   H     56.82000000    48.00000000    47.82000000
   H     54.57000000    48.02000000    49.79000000
   H     56.09000000    46.19000000    50.05000000
   H     55.79000000    47.32000000    51.40000000
   H     57.55000000    46.80000000    52.46000000
   H     59.21000000    47.14000000    51.94000000
   N     56.39000000    50.38000000    48.55000000
   C     56.78000000    51.77000000    48.56000000
   C     58.23000000    52.01000000    48.97000000
   O     58.55000000    53.20000000    48.99000000
   H     56.38000000    50.02000000    47.60000000
   H     56.17000000    52.46000000    49.16000000
   H     56.73000000    52.14000000    47.54000000
   N     59.11000000    51.01000000    49.03000000
   C     60.53000000    51.19000000    49.25000000
   C     61.43000000    50.43000000    48.28000000
   O     61.06000000    49.34000000    47.84000000
   C     60.90000000    50.82000000    50.68000000
   C     60.06000000    51.60000000    51.66000000
   C     60.51000000    52.89000000    51.95000000
   C     59.01000000    51.02000000    52.38000000
   C     59.87000000    53.61000000    52.97000000
   C     58.42000000    51.72000000    53.44000000
   C     58.78000000    53.06000000    53.68000000
   O     58.29000000    53.75000000    54.75000000
   H     58.76000000    50.07000000    48.87000000
   H     60.79000000    52.25000000    49.20000000
   H     61.94000000    51.10000000    50.81000000
   H     60.87000000    49.73000000    50.75000000
   H     61.39000000    53.33000000    51.50000000
   H     58.79000000    49.98000000    52.18000000
   H     60.11000000    54.66000000    53.05000000
   H     57.69000000    51.26000000    54.10000000
   H     57.58000000    53.35000000    55.24000000
   N     62.62000000    50.95000000    47.96000000
   C     63.62000000    50.29000000    47.15000000
   C     64.84000000    49.97000000    48.01000000
   O     65.27000000    50.79000000    48.81000000
   C     64.06000000    51.20000000    46.00000000
   C     62.87000000    51.41000000    45.07000000
   C     65.16000000    50.49000000    45.23000000
   C     63.14000000    52.36000000    43.90000000
   H     62.81000000    51.90000000    48.23000000
   H     63.28000000    49.36000000    46.71000000
   H     64.33000000    52.22000000    46.28000000
   H     62.05000000    51.81000000    45.67000000
   H     62.54000000    50.41000000    44.80000000
   H     64.87000000    49.46000000    45.02000000
   H     65.45000000    50.86000000    44.24000000
   H     66.09000000    50.63000000    45.78000000
   H     63.96000000    52.02000000    43.27000000
   H     62.23000000    52.44000000    43.30000000
   H     63.31000000    53.37000000    44.28000000
   N     65.40000000    48.76000000    47.90000000
   C     66.61000000    48.34000000    48.58000000
   C     67.73000000    48.00000000    47.61000000
   O     67.55000000    47.93000000    46.40000000
   C     66.23000000    47.17000000    49.48000000
   O     65.70000000    46.07000000    48.78000000
   H     64.93000000    48.01000000    47.42000000
   H     66.86000000    49.19000000    49.22000000
   H     65.51000000    47.56000000    50.21000000
   H     67.11000000    46.81000000    50.00000000
   H     64.91000000    45.74000000    49.22000000
   N     68.94000000    47.90000000    48.15000000
   C     70.17000000    47.67000000    47.41000000
   C     70.05000000    46.41000000    46.56000000
   O     70.42000000    46.40000000    45.39000000
   C     71.31000000    47.62000000    48.42000000
   H     68.97000000    48.00000000    49.16000000
   H     70.27000000    48.46000000    46.67000000
   H     72.27000000    47.67000000    47.91000000
   H     71.10000000    48.35000000    49.20000000
   H     71.34000000    46.62000000    48.86000000
   N     69.48000000    45.33000000    47.09000000
   C     69.21000000    44.06000000    46.45000000
   C     68.27000000    44.20000000    45.26000000
   O     68.44000000    43.57000000    44.22000000
   C     68.80000000    43.00000000    47.47000000
   H     69.19000000    45.38000000    48.06000000
   H     70.16000000    43.70000000    46.04000000
   H     68.92000000    41.99000000    47.07000000
   H     69.50000000    43.11000000    48.30000000
   H     67.80000000    43.20000000    47.84000000
   N     67.24000000    45.04000000    45.38000000
   C     66.27000000    45.39000000    44.37000000
   C     66.78000000    46.38000000    43.32000000
   O     66.40000000    46.18000000    42.17000000
   C     65.00000000    46.03000000    44.93000000
   C     64.39000000    45.00000000    45.88000000
   C     63.25000000    45.58000000    46.71000000
   O     62.70000000    44.79000000    47.50000000
   O     62.86000000    46.76000000    46.56000000
   H     67.22000000    45.60000000    46.22000000
   H     65.98000000    44.46000000    43.89000000
   H     64.42000000    46.25000000    44.04000000
   H     65.28000000    46.93000000    45.48000000
   H     65.15000000    44.72000000    46.61000000
   H     64.05000000    44.12000000    45.34000000
   N     67.70000000    47.28000000    43.66000000
   C     68.37000000    48.16000000    42.73000000
   H     69.36600000    47.77100000    42.51600000
   H     67.79600000    48.21700000    41.80500000
   H     68.45500000    49.15500000    43.16700000
   H     67.92000000    47.52000000    44.61000000
  Ca     60.66000000    46.64000000    48.03000000
   O     60.72000000    45.18000000    50.33000000
   H     61.21000000    44.36000000    50.29000000
   H     60.07000000    45.03000000    51.02000000
   O     62.30000000    47.82000000    49.90000000
   H     62.68000000    48.61000000    50.28000000
   H     62.73000000    47.10000000    50.37000000

Ca 1.70



