%chk=loop1.cluster116.chk
%nprocshared=48
%mem=10GB
%nosave
#b3lyp/svp scf=(tight,noincore) Test 
#IOP(5/87=12) Density=Current Pop=(MK,readradii) iop(6/33=2) iop(6/42=6)

loop1.cluster116 

   0  1 
   C     93.60000000    77.14000000    53.98000000
   C     92.86000000    77.60000000    52.73000000
   O     91.82000000    78.25000000    52.79000000
   H     94.50200000    77.73900000    54.10900000
   H     92.95600000    77.26300000    54.85000000
   H     93.87400000    76.09000000    53.87500000
   N     93.47000000    77.37000000    51.57000000
   C     93.16000000    77.98000000    50.29000000
   C     93.14000000    79.50000000    50.22000000
   O     92.55000000    80.12000000    49.35000000
   C     91.91000000    77.28000000    49.76000000
   C     91.47000000    77.67000000    48.36000000
   O     90.27000000    77.89000000    48.07000000
   O     92.37000000    77.77000000    47.49000000
   H     94.24000000    76.72000000    51.53000000
   H     93.96000000    77.66000000    49.61000000
   H     91.09000000    77.47000000    50.45000000
   H     92.15000000    76.22000000    49.88000000
   N     93.90000000    80.17000000    51.10000000
   C     93.88000000    81.62000000    51.21000000
   C     94.43000000    82.42000000    50.05000000
   O     94.19000000    83.62000000    49.90000000
   C     94.57000000    81.99000000    52.53000000
   C     94.11000000    81.33000000    53.82000000
   C     92.62000000    81.36000000    54.15000000
   C     92.16000000    82.82000000    54.16000000
   N     90.86000000    83.11000000    54.78000000
   H     94.42000000    79.70000000    51.82000000
   H     92.84000000    81.93000000    51.29000000
   H     94.46000000    83.05000000    52.77000000
   H     95.63000000    81.77000000    52.51000000
   H     94.61000000    81.83000000    54.65000000
   H     94.38000000    80.27000000    53.78000000
   H     92.55000000    80.95000000    55.16000000
   H     91.99000000    80.73000000    53.52000000
   H     92.15000000    83.12000000    53.11000000
   H     92.98000000    83.35000000    54.63000000
   H     90.57000000    84.07000000    54.97000000
   H     90.19000000    82.64000000    54.19000000
   H     90.88000000    82.67000000    55.68000000
   N     95.23000000    81.79000000    49.17000000
   C     95.74000000    82.40000000    47.96000000
   C     94.67000000    82.41000000    46.87000000
   O     94.79000000    83.02000000    45.81000000
   C     97.06000000    81.76000000    47.53000000
   C     97.94000000    82.59000000    46.62000000
   O     97.54000000    83.72000000    46.24000000
   O     98.97000000    82.04000000    46.19000000
   H     95.44000000    80.83000000    49.39000000
   H     95.90000000    83.45000000    48.19000000
   H     96.81000000    80.82000000    47.03000000
   H     97.61000000    81.52000000    48.44000000
   N     93.59000000    81.65000000    47.07000000
   C     92.67000000    81.26000000    46.02000000
   C     93.29000000    80.48000000    44.87000000
   O     93.70000000    79.34000000    45.05000000
   H     93.62000000    81.13000000    47.93000000
   H     92.21000000    82.16000000    45.61000000
   H     91.83000000    80.74000000    46.48000000
   N     93.45000000    81.14000000    43.72000000
   C     94.20000000    80.60000000    42.60000000
   C     95.68000000    80.62000000    42.95000000
   O     96.16000000    81.46000000    43.71000000
   C     93.99000000    81.39000000    41.31000000
   C     94.22000000    82.89000000    41.37000000
   O     94.45000000    83.45000000    42.47000000
   O     94.15000000    83.45000000    40.26000000
   H     93.09000000    82.06000000    43.54000000
   H     93.85000000    79.58000000    42.43000000
   H     92.97000000    81.28000000    40.94000000
   H     94.63000000    80.94000000    40.54000000
   N     96.43000000    79.74000000    42.29000000
   C     97.86000000    79.60000000    42.47000000
   C     98.11000000    78.72000000    43.69000000
   O     97.16000000    78.13000000    44.21000000
   H     95.93000000    79.05000000    41.75000000
   H     98.25000000    80.60000000    42.63000000
   H     98.29000000    79.12000000    41.58000000
   N     99.35000000    78.54000000    44.14000000
   C     99.79000000    77.72000000    45.25000000
   C    101.18000000    77.13000000    45.05000000
   O    101.95000000    77.66000000    44.26000000
   C     99.67000000    78.48000000    46.56000000
   C     99.70000000    77.72000000    47.88000000
   O    100.44000000    79.66000000    46.59000000
   H    100.07000000    79.07000000    43.66000000
   H     99.18000000    76.82000000    45.22000000
   H     98.65000000    78.87000000    46.48000000
   H     99.92000000    80.43000000    46.36000000
   H     99.71000000    78.49000000    48.66000000
   H     98.83000000    77.06000000    47.94000000
   H    100.60000000    77.11000000    47.89000000
   N    101.60000000    76.11000000    45.80000000
   C    102.81000000    75.32000000    45.70000000
   C    102.62000000    73.96000000    45.04000000
   O    103.56000000    73.19000000    44.86000000
   C    103.53000000    75.29000000    47.04000000
   C    104.98000000    74.82000000    47.01000000
   C    102.76000000    74.47000000    48.08000000
   C    105.95000000    75.74000000    47.75000000
   H    100.77000000    75.78000000    46.28000000
   H    103.46000000    75.83000000    44.99000000
   H    103.50000000    76.33000000    47.35000000
   H    105.35000000    74.77000000    45.98000000
   H    105.14000000    73.81000000    47.37000000
   H    102.64000000    73.40000000    47.93000000
   H    103.34000000    74.59000000    48.99000000
   H    101.86000000    75.06000000    48.29000000
   H    106.15000000    76.56000000    47.06000000
   H    105.53000000    76.09000000    48.69000000
   H    106.93000000    75.27000000    47.87000000
   N    101.37000000    73.63000000    44.71000000
   C    101.02000000    72.55000000    43.81000000
   C    101.06000000    71.15000000    44.41000000
   O    100.27000000    70.87000000    45.30000000
   C     99.66000000    72.81000000    43.16000000
   C     99.41000000    74.29000000    42.87000000
   O     99.60000000    72.11000000    41.94000000
   H    100.57000000    74.09000000    45.10000000
   H    101.76000000    72.64000000    43.01000000
   H     98.81000000    72.39000000    43.70000000
   H     99.27000000    71.21000000    42.01000000
   H    100.34000000    74.81000000    42.66000000
   H     98.74000000    74.45000000    42.02000000
   H     99.02000000    74.75000000    43.78000000
   N    101.79000000    70.20000000    43.82000000
   C    101.86000000    68.83000000    44.30000000
   C    102.66000000    68.75000000    45.59000000
   O    102.47000000    67.87000000    46.43000000
   C    102.41000000    67.82000000    43.30000000
   C    102.66000000    66.43000000    43.87000000
   O    103.60000000    68.33000000    42.74000000
   H    102.22000000    70.45000000    42.94000000
   H    100.85000000    68.53000000    44.57000000
   H    101.77000000    67.78000000    42.42000000
   H    104.26000000    67.66000000    42.56000000
   H    102.61000000    65.77000000    43.00000000
   H    103.64000000    66.38000000    44.34000000
   H    101.87000000    66.18000000    44.57000000
   N    103.49000000    69.76000000    45.85000000
   C    104.49000000    69.77000000    46.90000000
   C    104.00000000    70.29000000    48.24000000
   O    102.94000000    70.91000000    48.31000000
   C    105.55000000    70.66000000    46.26000000
   C    106.07000000    70.24000000    44.89000000
   C    107.18000000    71.11000000    44.32000000
   C    106.63000000    72.51000000    44.11000000
   N    107.67000000    73.54000000    43.96000000
   H    103.64000000    70.45000000    45.13000000
   H    104.91000000    68.76000000    46.94000000
   H    106.48000000    70.58000000    46.83000000
   H    105.27000000    71.71000000    46.36000000
   H    105.31000000    70.25000000    44.10000000
   H    106.43000000    69.22000000    45.03000000
   H    107.59000000    70.74000000    43.38000000
   H    108.02000000    71.14000000    45.02000000
   H    106.06000000    72.86000000    44.98000000
   H    105.91000000    72.50000000    43.29000000
   H    108.28000000    73.55000000    43.15000000
   H    107.22000000    74.44000000    43.93000000
   H    108.30000000    73.49000000    44.75000000
   N    104.88000000    70.04000000    49.21000000
   C    104.80000000    70.57000000    50.56000000
   C    104.37000000    69.58000000    51.63000000
   O    104.64000000    68.38000000    51.53000000
   C    106.16000000    71.19000000    50.86000000
   C    106.24000000    72.57000000    50.22000000
   C    107.70000000    73.00000000    50.32000000
   O    108.24000000    73.15000000    51.44000000
   O    108.39000000    73.05000000    49.29000000
   H    105.78000000    69.77000000    48.83000000
   H    104.09000000    71.40000000    50.61000000
   H    107.00000000    70.54000000    50.62000000
   H    106.26000000    71.30000000    51.94000000
   H    105.63000000    73.28000000    50.77000000
   H    105.97000000    72.66000000    49.17000000
   N    103.72000000    69.96000000    52.73000000
   C    103.15000000    71.26000000    53.02000000
   H    102.17400000    71.13200000    53.48800000
   H    103.80900000    71.80300000    53.69700000
   H    103.03700000    71.82300000    52.09300000
   H    103.55000000    69.22000000    53.40000000
  Ca     96.40000000    84.17000000    44.04000000
   O     95.45000000    86.33000000    45.32000000
   H     94.52000000    86.26000000    45.52000000
   H     95.85000000    86.64000000    46.13000000
   O     98.88000000    83.09000000    43.70000000
   H     98.99000000    82.56000000    44.49000000
   H     99.62000000    83.69000000    43.70000000
   O     95.07000000    86.41000000    42.37000000
   H     94.54000000    85.96000000    41.72000000
   H     94.49000000    87.09000000    42.72000000
   O     97.11000000    84.09000000    41.45000000
   H     96.53000000    84.01000000    40.69000000
   H     97.94000000    84.40000000    41.08000000
   O     98.36000000    85.88000000    44.22000000
   H     98.90000000    85.89000000    45.01000000
   H     98.66000000    86.63000000    43.71000000

Ca 1.70



