%chk=loop4.cluster137.chk
%nprocshared=48
%mem=10GB
%nosave
#b3lyp/svp scf=(tight,noincore) Test 
#IOP(5/87=12) Density=Current Pop=(MK,readradii) iop(6/33=2) iop(6/42=6)

loop4.cluster137 

   -3  1 
   C     42.52000000    40.80000000    42.44000000
   C     42.31000000    39.99000000    43.71000000
   O     43.08000000    39.12000000    44.12000000
   H     43.56400000    40.73300000    42.13500000
   H     41.88500000    40.40500000    41.64700000
   H     42.26300000    41.84300000    42.62700000
   N     41.15000000    40.19000000    44.33000000
   C     41.01000000    40.28000000    45.77000000
   C     42.24000000    40.73000000    46.55000000
   O     42.88000000    39.93000000    47.24000000
   C     40.32000000    39.11000000    46.46000000
   C     40.89000000    37.70000000    46.36000000
   O     41.31000000    37.29000000    45.25000000
   O     40.78000000    36.90000000    47.31000000
   H     40.39000000    40.57000000    43.77000000
   H     40.33000000    41.12000000    45.87000000
   H     39.35000000    39.07000000    45.95000000
   H     40.15000000    39.34000000    47.51000000
   N     42.65000000    41.99000000    46.43000000
   C     43.69000000    42.71000000    47.13000000
   C     43.30000000    42.85000000    48.59000000
   O     43.16000000    43.99000000    49.04000000
   C     45.12000000    42.18000000    46.97000000
   C     46.09000000    43.28000000    47.37000000
   C     45.49000000    41.67000000    45.59000000
   C     47.60000000    43.02000000    47.35000000
   H     41.99000000    42.60000000    45.96000000
   H     43.75000000    43.72000000    46.73000000
   H     45.24000000    41.26000000    47.56000000
   H     45.83000000    43.64000000    48.37000000
   H     45.91000000    44.04000000    46.61000000
   H     46.38000000    41.04000000    45.56000000
   H     44.67000000    41.04000000    45.24000000
   H     45.52000000    42.54000000    44.93000000
   H     47.84000000    42.16000000    47.97000000
   H     47.85000000    42.66000000    46.36000000
   H     48.21000000    43.90000000    47.56000000
   N     43.01000000    41.80000000    49.35000000
   C     42.60000000    41.84000000    50.74000000
   C     43.53000000    41.07000000    51.67000000
   O     43.81000000    41.44000000    52.80000000
   C     41.19000000    41.27000000    50.85000000
   C     40.12000000    41.92000000    49.98000000
   O     40.03000000    43.15000000    49.77000000
   O     39.27000000    41.13000000    49.52000000
   H     43.09000000    40.88000000    48.95000000
   H     42.55000000    42.88000000    51.07000000
   H     40.92000000    41.37000000    51.90000000
   H     41.19000000    40.20000000    50.64000000
   N     44.16000000    39.95000000    51.29000000
   C     43.84000000    39.13000000    50.14000000
   C     44.28000000    37.68000000    50.35000000
   O     43.37000000    36.86000000    50.30000000
   H     44.70000000    39.55000000    52.04000000
   H     44.26000000    39.52000000    49.21000000
   H     42.77000000    39.00000000    49.98000000
   N     45.53000000    37.28000000    50.58000000
   C     46.71000000    38.11000000    50.66000000
   C     47.03000000    38.99000000    49.46000000
   O     46.65000000    38.75000000    48.32000000
   C     47.76000000    37.02000000    50.79000000
   C     49.09000000    37.49000000    51.36000000
   O     49.21000000    37.44000000    52.61000000
   O     50.05000000    38.03000000    50.77000000
   H     45.65000000    36.28000000    50.46000000
   H     46.75000000    38.73000000    51.56000000
   H     47.86000000    36.59000000    49.79000000
   H     47.41000000    36.18000000    51.40000000
   N     47.74000000    40.11000000    49.63000000
   C     48.48000000    40.64000000    50.76000000
   C     49.73000000    41.38000000    50.30000000
   O     49.76000000    42.56000000    49.98000000
   H     47.92000000    40.60000000    48.77000000
   H     48.75000000    39.94000000    51.55000000
   H     47.85000000    41.34000000    51.30000000
   N     50.86000000    40.65000000    50.23000000
   C     52.10000000    41.01000000    49.57000000
   C     52.11000000    40.91000000    48.06000000
   O     52.99000000    40.33000000    47.44000000
   C     53.21000000    40.24000000    50.29000000
   C     53.11000000    38.74000000    50.56000000
   C     53.27000000    37.68000000    49.48000000
   N     52.17000000    37.01000000    49.13000000
   O     54.35000000    37.51000000    48.92000000
   H     50.75000000    39.71000000    50.56000000
   H     52.36000000    42.04000000    49.80000000
   H     53.10000000    40.70000000    51.27000000
   H     54.22000000    40.59000000    50.05000000
   H     52.22000000    38.54000000    51.15000000
   H     53.90000000    38.54000000    51.29000000
   H     51.31000000    37.15000000    49.64000000
   H     52.25000000    36.28000000    48.44000000
   N     51.04000000    41.40000000    47.42000000
   C     50.51000000    41.03000000    46.13000000
   C     51.58000000    41.00000000    45.04000000
   O     51.96000000    39.94000000    44.53000000
   C     49.44000000    39.95000000    46.25000000
   C     49.86000000    38.66000000    46.95000000
   C     48.64000000    39.78000000    44.96000000
   H     50.36000000    41.85000000    48.03000000
   H     49.93000000    41.90000000    45.83000000
   H     48.74000000    40.49000000    46.87000000
   H     49.71000000    38.77000000    48.02000000
   H     49.33000000    37.78000000    46.57000000
   H     50.93000000    38.53000000    46.84000000
   H     49.19000000    39.15000000    44.27000000
   H     47.69000000    39.32000000    45.24000000
   H     48.36000000    40.77000000    44.58000000
   N     52.16000000    42.18000000    44.82000000
   C     53.35000000    42.31000000    44.01000000
   C     53.10000000    42.12000000    42.52000000
   O     53.12000000    43.11000000    41.80000000
   C     54.51000000    41.58000000    44.68000000
   C     55.94000000    42.06000000    44.48000000
   N     56.86000000    41.84000000    45.43000000
   O     56.29000000    42.74000000    43.52000000
   H     51.66000000    42.94000000    45.27000000
   H     53.60000000    43.36000000    44.05000000
   H     54.47000000    40.54000000    44.36000000
   H     54.27000000    41.55000000    45.74000000
   H     56.69000000    41.32000000    46.28000000
   H     57.79000000    42.12000000    45.16000000
   N     52.89000000    40.87000000    42.09000000
   C     52.63000000    40.47000000    40.72000000
   C     52.09000000    39.04000000    40.76000000
   O     51.90000000    38.45000000    41.82000000
   C     53.92000000    40.56000000    39.91000000
   C     54.99000000    39.58000000    40.34000000
   C     55.16000000    38.37000000    39.65000000
   C     55.89000000    39.99000000    41.33000000
   C     55.89000000    37.35000000    40.27000000
   C     56.81000000    39.04000000    41.80000000
   C     56.75000000    37.71000000    41.32000000
   O     57.60000000    36.78000000    41.85000000
   H     53.02000000    40.11000000    42.75000000
   H     51.80000000    41.06000000    40.33000000
   H     54.27000000    41.59000000    39.97000000
   H     53.70000000    40.40000000    38.86000000
   H     54.59000000    38.24000000    38.75000000
   H     55.93000000    41.03000000    41.63000000
   H     55.82000000    36.32000000    39.94000000
   H     57.58000000    39.31000000    42.50000000
   H     58.16000000    37.10000000    42.55000000
   N     51.87000000    38.54000000    39.54000000
   C     51.31000000    37.24000000    39.25000000
   C     49.83000000    37.06000000    39.56000000
   O     49.15000000    36.27000000    38.91000000
   C     52.16000000    36.10000000    39.80000000
   C     51.87000000    34.76000000    39.13000000
   C     52.80000000    33.66000000    39.62000000
   O     53.20000000    33.62000000    40.81000000
   O     53.18000000    32.81000000    38.79000000
   H     51.94000000    39.14000000    38.73000000
   H     51.26000000    37.19000000    38.16000000
   H     52.02000000    36.06000000    40.88000000
   H     53.20000000    36.32000000    39.54000000
   H     51.92000000    34.84000000    38.05000000
   H     50.87000000    34.38000000    39.35000000
   N     49.19000000    37.82000000    40.46000000
   C     47.76000000    37.99000000    40.60000000
   C     47.20000000    39.20000000    39.87000000
   O     46.04000000    39.17000000    39.46000000
   C     47.40000000    38.00000000    42.08000000
   C     47.90000000    36.75000000    42.80000000
   C     47.41000000    36.52000000    44.22000000
   O     48.15000000    35.89000000    45.01000000
   O     46.19000000    36.66000000    44.46000000
   H     49.81000000    38.41000000    41.00000000
   H     47.30000000    37.10000000    40.16000000
   H     46.31000000    38.00000000    42.13000000
   H     47.70000000    38.91000000    42.61000000
   H     48.98000000    36.72000000    42.92000000
   H     47.55000000    35.89000000    42.21000000
   N     47.98000000    40.27000000    39.67000000
   C     47.69000000    41.26000000    38.65000000
   H     46.85400000    41.88000000    38.97400000
   H     48.56700000    41.88700000    38.49200000
   H     47.42900000    40.75700000    37.71900000
   H     48.90000000    40.24000000    40.08000000
  Ca     43.71000000    36.46000000    44.53000000
   O     44.36000000    38.05000000    46.56000000
   H     43.69000000    38.73000000    46.65000000
   H     45.06000000    38.32000000    47.14000000
   O     44.60000000    33.77000000    44.45000000
   H     44.02000000    33.10000000    44.08000000
   H     45.16000000    33.29000000    45.06000000
   O     42.61000000    35.06000000    46.67000000
   H     42.90000000    34.89000000    47.57000000
   H     41.87000000    35.66000000    46.77000000
   O     43.72000000    36.36000000    41.74000000
   H     42.88000000    36.35000000    41.27000000
   H     44.29000000    35.80000000    41.22000000
   O     41.88000000    34.81000000    43.54000000
   H     41.00000000    34.60000000    43.84000000
   H     41.90000000    34.50000000    42.63000000

Ca 1.70



