%chk=loop3.cluster74.chk
%nprocshared=48
%mem=10GB
%nosave
#b3lyp/svp scf=(tight,noincore) Test 
#IOP(5/87=12) Density=Current Pop=(MK,readradii) iop(6/33=2) iop(6/42=6)

loop3.cluster74 

   0  1 
   C    111.15000000    65.61000000    18.62000000
   C    110.72000000    66.42000000    17.41000000
   O    109.55000000    66.48000000    17.03000000
   H    112.02500000    66.07400000    19.07500000
   H    110.33700000    65.58000000    19.34500000
   H    111.39800000    64.59500000    18.30900000
   N    111.63000000    67.16000000    16.77000000
   C    111.48000000    67.99000000    15.59000000
   C    111.91000000    67.23000000    14.35000000
   O    112.57000000    66.20000000    14.52000000
   C    112.22000000    69.33000000    15.57000000
   C    113.65000000    69.32000000    16.08000000
   O    114.15000000    68.38000000    16.74000000
   O    114.25000000    70.41000000    15.95000000
   H    112.56000000    67.26000000    17.15000000
   H    110.43000000    68.24000000    15.41000000
   H    111.67000000    70.05000000    16.17000000
   H    112.23000000    69.74000000    14.56000000
   N    111.60000000    67.68000000    13.13000000
   C    112.03000000    66.96000000    11.95000000
   C    111.38000000    65.58000000    11.90000000
   O    112.04000000    64.68000000    11.38000000
   C    111.76000000    67.88000000    10.76000000
   C    112.19000000    67.28000000     9.43000000
   C    112.12000000    68.29000000     8.29000000
   C    112.24000000    67.53000000     6.97000000
   N    112.08000000    68.47000000     5.85000000
   H    111.06000000    68.53000000    13.05000000
   H    113.10000000    66.77000000    11.94000000
   H    112.32000000    68.81000000    10.92000000
   H    110.71000000    68.18000000    10.80000000
   H    111.55000000    66.43000000     9.24000000
   H    113.23000000    66.96000000     9.55000000
   H    112.87000000    69.07000000     8.41000000
   H    111.13000000    68.73000000     8.43000000
   H    111.47000000    66.76000000     6.91000000
   H    113.22000000    67.06000000     6.96000000
   H    112.34000000    67.95000000     5.02000000
   H    111.13000000    68.75000000     5.65000000
   H    112.70000000    69.24000000     6.05000000
   N    110.15000000    65.42000000    12.40000000
   C    109.45000000    64.16000000    12.39000000
   C    108.52000000    64.02000000    11.19000000
   O    107.70000000    63.11000000    11.16000000
   C    108.67000000    63.91000000    13.68000000
   C    107.72000000    65.04000000    14.06000000
   O    106.96000000    64.81000000    15.02000000
   O    107.68000000    66.09000000    13.38000000
   H    109.66000000    66.22000000    12.78000000
   H    110.24000000    63.41000000    12.40000000
   H    109.40000000    63.73000000    14.46000000
   H    108.01000000    63.05000000    13.67000000
   N    108.63000000    64.86000000    10.15000000
   C    107.79000000    64.81000000     8.98000000
   C    108.40000000    65.54000000     7.80000000
   O    109.23000000    66.43000000     7.98000000
   H    109.40000000    65.51000000    10.03000000
   H    106.77000000    65.15000000     9.17000000
   H    107.64000000    63.75000000     8.78000000
   N    108.13000000    65.23000000     6.53000000
   C    107.17000000    64.28000000     6.01000000
   C    105.75000000    64.67000000     6.39000000
   O    105.44000000    65.82000000     6.70000000
   C    107.43000000    64.14000000     4.51000000
   C    108.84000000    63.68000000     4.17000000
   N    109.11000000    63.65000000     2.87000000
   O    109.75000000    63.38000000     4.95000000
   H    108.39000000    65.88000000     5.80000000
   H    107.38000000    63.37000000     6.57000000
   H    107.31000000    65.17000000     4.16000000
   H    106.70000000    63.43000000     4.13000000
   H    108.47000000    63.74000000     2.10000000
   H    110.05000000    63.37000000     2.61000000
   N    104.80000000    63.74000000     6.35000000
   C    104.95000000    62.30000000     6.20000000
   C    105.55000000    61.52000000     7.36000000
   O    105.77000000    62.12000000     8.42000000
   H    103.87000000    64.04000000     6.61000000
   H    105.50000000    62.15000000     5.28000000
   H    103.90000000    61.99000000     6.11000000
   N    105.75000000    60.22000000     7.20000000
   C    106.25000000    59.37000000     8.26000000
   C    107.36000000    58.42000000     7.84000000
   O    107.22000000    57.22000000     8.03000000
   C    105.10000000    58.59000000     8.90000000
   C    103.99000000    59.42000000     9.49000000
   C    104.14000000    60.02000000    10.74000000
   C    102.91000000    59.76000000     8.66000000
   C    103.15000000    60.89000000    11.20000000
   C    101.89000000    60.60000000     9.12000000
   C    102.02000000    61.17000000    10.40000000
   O    101.00000000    61.93000000    10.89000000
   H    105.47000000    59.82000000     6.31000000
   H    106.65000000    60.03000000     9.03000000
   H    105.54000000    57.93000000     9.65000000
   H    104.79000000    57.87000000     8.14000000
   H    105.02000000    59.80000000    11.33000000
   H    102.87000000    59.42000000     7.64000000
   H    103.33000000    61.37000000    12.15000000
   H    101.03000000    60.80000000     8.49000000
   H    100.25000000    61.87000000    10.30000000
   N    108.24000000    58.95000000     6.98000000
   C    108.99000000    58.16000000     6.02000000
   C    110.28000000    57.51000000     6.51000000
   O    110.74000000    56.64000000     5.79000000
   C    109.25000000    59.03000000     4.80000000
   C    107.94000000    59.46000000     4.13000000
   C    110.26000000    60.13000000     5.10000000
   C    108.22000000    60.09000000     2.77000000
   H    108.21000000    59.95000000     6.80000000
   H    108.30000000    57.38000000     5.72000000
   H    109.72000000    58.47000000     3.99000000
   H    107.39000000    60.21000000     4.70000000
   H    107.30000000    58.58000000     4.16000000
   H    109.81000000    60.82000000     5.82000000
   H    111.22000000    59.85000000     5.53000000
   H    110.53000000    60.67000000     4.19000000
   H    107.28000000    60.18000000     2.23000000
   H    108.65000000    61.09000000     2.78000000
   H    108.84000000    59.44000000     2.16000000
   N    110.77000000    57.80000000     7.72000000
   C    112.08000000    57.34000000     8.12000000
   C    112.93000000    58.37000000     8.86000000
   O    114.16000000    58.33000000     8.77000000
   C    112.01000000    56.08000000     8.98000000
   O    111.68000000    56.38000000    10.31000000
   H    110.24000000    58.38000000     8.35000000
   H    112.73000000    57.02000000     7.31000000
   H    112.95000000    55.53000000     8.91000000
   H    111.19000000    55.41000000     8.73000000
   H    110.77000000    56.65000000    10.45000000
   N    112.34000000    59.34000000     9.55000000
   C    112.95000000    60.26000000    10.49000000
   C    113.17000000    59.65000000    11.87000000
   O    113.55000000    60.35000000    12.80000000
   C    112.14000000    61.55000000    10.56000000
   H    111.33000000    59.42000000     9.50000000
   H    113.93000000    60.46000000    10.05000000
   H    111.99000000    62.01000000     9.58000000
   H    111.18000000    61.30000000    11.00000000
   H    112.66000000    62.26000000    11.20000000
   N    112.87000000    58.37000000    12.14000000
   C    112.63000000    57.75000000    13.42000000
   C    111.47000000    58.35000000    14.21000000
   O    111.62000000    58.70000000    15.38000000
   C    113.94000000    57.71000000    14.19000000
   H    112.33000000    57.89000000    11.44000000
   H    112.34000000    56.71000000    13.22000000
   H    113.73000000    57.16000000    15.11000000
   H    114.67000000    57.08000000    13.69000000
   H    114.43000000    58.64000000    14.50000000
   N    110.36000000    58.49000000    13.49000000
   C    109.12000000    59.02000000    14.03000000
   C    108.02000000    58.08000000    14.48000000
   O    107.38000000    58.38000000    15.48000000
   C    108.55000000    60.05000000    13.05000000
   C    108.04000000    59.57000000    11.70000000
   C    109.08000000    58.84000000    10.86000000
   O    109.27000000    57.62000000    11.07000000
   O    109.61000000    59.42000000     9.89000000
   H    110.34000000    58.17000000    12.53000000
   H    109.34000000    59.59000000    14.93000000
   H    109.37000000    60.73000000    12.84000000
   H    107.77000000    60.64000000    13.55000000
   H    107.69000000    60.39000000    11.08000000
   H    107.18000000    58.92000000    11.85000000
   N    107.84000000    56.94000000    13.79000000
   C    107.02000000    55.86000000    14.30000000
   H    106.06300000    55.85400000    13.77800000
   H    107.52800000    54.90900000    14.13700000
   H    106.85100000    56.00400000    15.36700000
   H    108.34000000    56.68000000    12.95000000
  Ca    104.90600000    66.64000000    15.91000000
   O    107.26600000    67.88000000    15.45000000
   H    108.02600000    68.38000000    15.71000000
   H    107.49600000    67.52000000    14.59000000
   O    106.81600000    66.39000000    17.84000000
   H    106.79600000    66.88000000    18.66000000
   H    107.71600000    66.49000000    17.52000000
   O    104.74600000    67.58000000    13.56000000
   H    105.08600000    67.21000000    12.74000000
   H    104.62600000    68.51000000    13.38000000
   O    102.11600000    67.02000000    16.15000000
   H    101.43600000    67.59000000    15.79000000
   H    101.65600000    66.19000000    16.32000000
   O    103.60600000    64.77000000    14.62000000
   H    104.11600000    64.38000000    13.91000000
   H    102.85600000    64.19000000    14.72000000
   O    104.15600000    64.70000000    17.55000000
   H    103.51600000    64.14000000    17.10000000
   H    104.20600000    64.35000000    18.44000000

Ca 1.70



