%chk=loop3.cluster162.chk
%nprocshared=48
%mem=10GB
%nosave
#b3lyp/svp scf=(tight,noincore) Test 
#IOP(5/87=12) Density=Current Pop=(MK,readradii) iop(6/33=2) iop(6/42=6)

loop3.cluster162 

   0  1 
   C    -11.66000000   -19.93000000    60.61000000
   C    -12.27000000   -21.24000000    60.15000000
   O    -13.25000000   -21.19000000    59.40000000
   H    -10.72200000   -19.76100000    60.08100000
   H    -12.34900000   -19.11300000    60.39600000
   H    -11.46900000   -19.97400000    61.68200000
   N    -11.90000000   -22.34000000    60.81000000
   C    -12.37000000   -23.67000000    60.50000000
   C    -13.40000000   -24.14000000    61.53000000
   O    -13.17000000   -24.07000000    62.73000000
   C    -11.09000000   -24.46000000    60.29000000
   C    -11.21000000   -25.98000000    60.22000000
   O    -12.22000000   -26.63000000    60.59000000
   O    -10.35000000   -26.60000000    59.55000000
   H    -11.20000000   -22.20000000    61.53000000
   H    -12.92000000   -23.71000000    59.56000000
   H    -10.47000000   -24.25000000    61.16000000
   H    -10.51000000   -24.13000000    59.42000000
   N    -14.55000000   -24.65000000    61.10000000
   C    -15.56000000   -25.14000000    62.01000000
   C    -15.34000000   -26.46000000    62.75000000
   O    -16.15000000   -26.76000000    63.62000000
   C    -16.90000000   -25.16000000    61.29000000
   C    -17.14000000   -26.07000000    60.09000000
   C    -18.64000000   -26.21000000    59.88000000
   C    -19.28000000   -24.88000000    59.49000000
   N    -20.75000000   -24.92000000    59.49000000
   H    -14.87000000   -24.56000000    60.14000000
   H    -15.63000000   -24.35000000    62.76000000
   H    -17.15000000   -24.12000000    61.09000000
   H    -17.56000000   -25.43000000    62.12000000
   H    -16.75000000   -27.06000000    60.34000000
   H    -16.65000000   -25.68000000    59.19000000
   H    -19.00000000   -26.56000000    60.85000000
   H    -18.88000000   -27.00000000    59.16000000
   H    -18.83000000   -24.42000000    58.60000000
   H    -19.03000000   -24.11000000    60.22000000
   H    -21.17000000   -24.06000000    59.18000000
   H    -21.06000000   -25.63000000    58.85000000
   H    -21.15000000   -25.06000000    60.41000000
   N    -14.29000000   -27.25000000    62.56000000
   C    -13.90000000   -28.38000000    63.38000000
   C    -12.41000000   -28.38000000    63.72000000
   O    -11.97000000   -29.13000000    64.59000000
   C    -14.18000000   -29.70000000    62.65000000
   C    -13.74000000   -29.79000000    61.20000000
   O    -14.45000000   -29.47000000    60.22000000
   O    -12.58000000   -30.21000000    61.02000000
   H    -13.60000000   -26.85000000    61.94000000
   H    -14.41000000   -28.35000000    64.34000000
   H    -15.24000000   -29.89000000    62.81000000
   H    -13.64000000   -30.48000000    63.19000000
   N    -11.58000000   -27.57000000    63.06000000
   C    -10.15000000   -27.43000000    63.26000000
   C     -9.24000000   -28.39000000    62.52000000
   O     -8.02000000   -28.31000000    62.65000000
   H    -12.04000000   -27.05000000    62.33000000
   H     -9.87000000   -27.47000000    64.31000000
   H     -9.87000000   -26.43000000    62.94000000
   N     -9.74000000   -29.40000000    61.81000000
   C     -9.01000000   -30.46000000    61.14000000
   C     -8.78000000   -30.16000000    59.66000000
   O     -9.68000000   -29.64000000    59.00000000
   C     -9.69000000   -31.79000000    61.41000000
   C     -8.79000000   -32.96000000    61.06000000
   N     -9.04000000   -34.13000000    61.66000000
   O     -7.86000000   -32.89000000    60.26000000
   H    -10.73000000   -29.56000000    61.97000000
   H     -8.06000000   -30.43000000    61.68000000
   H    -10.61000000   -31.84000000    60.82000000
   H     -9.80000000   -31.85000000    62.50000000
   H     -9.84000000   -34.25000000    62.26000000
   H     -8.32000000   -34.82000000    61.57000000
   N     -7.53000000   -30.27000000    59.23000000
   C     -7.10000000   -29.87000000    57.90000000
   C     -7.20000000   -30.94000000    56.82000000
   O     -7.02000000   -30.60000000    55.65000000
   H     -6.86000000   -30.82000000    59.75000000
   H     -6.06000000   -29.56000000    57.91000000
   H     -7.71000000   -29.02000000    57.61000000
   N     -7.69000000   -32.15000000    57.08000000
   C     -8.17000000   -33.06000000    56.06000000
   C     -9.40000000   -32.53000000    55.34000000
   O    -10.26000000   -31.91000000    55.97000000
   C     -8.52000000   -34.38000000    56.73000000
   C     -8.86000000   -35.51000000    55.79000000
   C    -10.22000000   -35.65000000    55.48000000
   C     -7.96000000   -36.34000000    55.11000000
   C    -10.65000000   -36.54000000    54.49000000
   C     -8.36000000   -37.27000000    54.14000000
   C     -9.73000000   -37.39000000    53.84000000
   O    -10.17000000   -38.41000000    53.05000000
   H     -8.00000000   -32.36000000    58.02000000
   H     -7.37000000   -33.31000000    55.36000000
   H     -9.29000000   -34.32000000    57.50000000
   H     -7.57000000   -34.57000000    57.23000000
   H    -10.92000000   -34.95000000    55.91000000
   H     -6.92000000   -36.23000000    55.38000000
   H    -11.67000000   -36.50000000    54.14000000
   H     -7.57000000   -37.85000000    53.70000000
   H     -9.39000000   -38.90000000    52.79000000
   N     -9.40000000   -32.69000000    54.01000000
   C    -10.51000000   -32.38000000    53.13000000
   C    -11.83000000   -33.11000000    53.39000000
   O    -12.22000000   -33.20000000    54.55000000
   C    -10.61000000   -30.87000000    52.95000000
   C    -11.74000000   -30.36000000    52.06000000
   C     -9.37000000   -30.24000000    52.31000000
   C    -12.94000000   -30.04000000    52.94000000
   H     -8.59000000   -33.06000000    53.55000000
   H    -10.26000000   -32.75000000    52.14000000
   H    -10.65000000   -30.43000000    53.94000000
   H    -11.99000000   -31.23000000    51.45000000
   H    -11.40000000   -29.50000000    51.49000000
   H     -9.45000000   -29.16000000    52.26000000
   H     -8.44000000   -30.42000000    52.85000000
   H     -9.24000000   -30.65000000    51.31000000
   H    -13.82000000   -29.66000000    52.41000000
   H    -13.27000000   -30.93000000    53.47000000
   H    -12.61000000   -29.29000000    53.66000000
   N    -12.53000000   -33.66000000    52.39000000
   C    -13.78000000   -34.39000000    52.43000000
   C    -13.90000000   -35.56000000    51.47000000
   O    -14.88000000   -36.27000000    51.73000000
   C    -14.92000000   -33.41000000    52.19000000
   O    -14.57000000   -32.49000000    51.18000000
   H    -12.28000000   -33.41000000    51.45000000
   H    -13.87000000   -34.85000000    53.41000000
   H    -15.20000000   -32.89000000    53.11000000
   H    -15.82000000   -34.00000000    51.99000000
   H    -15.22000000   -31.78000000    51.17000000
   N    -13.06000000   -35.74000000    50.45000000
   C    -12.97000000   -36.84000000    49.51000000
   C    -14.10000000   -37.12000000    48.54000000
   O    -14.22000000   -38.28000000    48.14000000
   C    -12.62000000   -38.10000000    50.30000000
   H    -12.55000000   -34.88000000    50.30000000
   H    -12.04000000   -36.69000000    48.96000000
   H    -13.46000000   -38.69000000    50.66000000
   H    -12.08000000   -38.76000000    49.62000000
   H    -11.92000000   -37.83000000    51.10000000
   N    -14.91000000   -36.20000000    48.00000000
   C    -15.01000000   -34.78000000    48.27000000
   C    -15.00000000   -34.11000000    46.90000000
   O    -15.63000000   -34.65000000    45.99000000
   C    -16.24000000   -34.48000000    49.12000000
   H    -15.53000000   -36.55000000    47.28000000
   H    -14.04000000   -34.43000000    48.63000000
   H    -17.14000000   -34.96000000    48.76000000
   H    -15.90000000   -34.78000000    50.11000000
   H    -16.59000000   -33.45000000    49.17000000
   N    -14.40000000   -32.94000000    46.69000000
   C    -13.85000000   -31.96000000    47.61000000
   C    -12.45000000   -31.44000000    47.32000000
   O    -11.50000000   -31.65000000    48.07000000
   C    -14.79000000   -30.77000000    47.83000000
   C    -14.35000000   -29.75000000    48.87000000
   C    -15.43000000   -28.67000000    48.83000000
   O    -16.57000000   -28.88000000    49.29000000
   O    -15.18000000   -27.58000000    48.27000000
   H    -14.47000000   -32.66000000    45.73000000
   H    -13.89000000   -32.46000000    48.58000000
   H    -15.74000000   -31.21000000    48.14000000
   H    -14.94000000   -30.32000000    46.85000000
   H    -13.36000000   -29.33000000    48.73000000
   H    -14.36000000   -30.29000000    49.82000000
   N    -12.29000000   -30.71000000    46.22000000
   C    -11.02000000   -30.39000000    45.60000000
   H    -10.24900000   -31.05500000    45.98900000
   H    -11.09900000   -30.51900000    44.52100000
   H    -10.75500000   -29.35700000    45.82500000
   H    -13.11000000   -30.66000000    45.62000000
  Ca    -12.05000000   -28.72000000    59.03000000
   O    -11.78000000   -31.58000000    58.34000000
   H    -12.49000000   -31.95000000    57.82000000
   H    -10.98000000   -31.81000000    57.85000000
   O    -11.42000000   -28.31000000    56.55000000
   H    -12.11000000   -28.28000000    55.89000000
   H    -10.61000000   -28.43000000    56.05000000
   O    -13.68000000   -26.72000000    58.07000000
   H    -14.63000000   -26.64000000    58.03000000
   H    -13.38000000   -26.43000000    57.21000000
   O    -13.88000000   -29.91000000    57.29000000
   H    -14.31000000   -30.70000000    57.61000000
   H    -14.21000000   -29.81000000    56.39000000

Ca 1.70



