%chk=loop4.cluster81.chk
%nprocshared=48
%mem=10GB
%nosave
#b3lyp/svp scf=(tight,noincore) Test 
#IOP(5/87=12) Density=Current Pop=(MK,readradii) iop(6/33=2) iop(6/42=6)

loop4.cluster81 

   -3  1 
   C     68.99000000    54.80000000    46.08000000
   C     68.43000000    55.24000000    47.43000000
   O     67.80000000    56.29000000    47.46000000
   H     70.00900000    54.43500000    46.21100000
   H     68.36900000    54.00300000    45.67100000
   H     68.99400000    55.64700000    45.39400000
   N     68.49000000    54.33000000    48.41000000
   C     68.16000000    54.76000000    49.75000000
   C     68.94000000    55.99000000    50.20000000
   O     70.14000000    56.05000000    49.94000000
   C     68.30000000    53.63000000    50.77000000
   C     67.89000000    53.86000000    52.22000000
   O     66.99000000    54.67000000    52.52000000
   O     68.45000000    53.10000000    53.04000000
   H     68.99000000    53.50000000    48.15000000
   H     67.13000000    55.11000000    49.74000000
   H     69.32000000    53.26000000    50.73000000
   H     67.66000000    52.85000000    50.36000000
   N     68.27000000    56.94000000    50.85000000
   C     68.75000000    58.23000000    51.28000000
   C     68.56000000    58.46000000    52.78000000
   O     69.56000000    58.55000000    53.49000000
   C     68.22000000    59.38000000    50.42000000
   C     68.85000000    59.27000000    49.03000000
   C     68.49000000    60.76000000    51.00000000
   C     68.27000000    60.18000000    47.96000000
   H     67.28000000    56.83000000    51.03000000
   H     69.82000000    58.23000000    51.10000000
   H     67.14000000    59.30000000    50.31000000
   H     68.73000000    58.26000000    48.63000000
   H     69.91000000    59.50000000    49.15000000
   H     69.54000000    61.03000000    51.01000000
   H     68.02000000    61.52000000    50.36000000
   H     68.04000000    60.93000000    51.98000000
   H     68.47000000    61.22000000    48.23000000
   H     68.70000000    60.10000000    46.96000000
   H     67.23000000    59.86000000    47.91000000
   N     67.30000000    58.41000000    53.20000000
   C     67.02000000    58.48000000    54.62000000
   C     67.32000000    57.28000000    55.51000000
   O     67.24000000    57.44000000    56.73000000
   C     65.64000000    59.09000000    54.87000000
   C     64.45000000    58.29000000    54.35000000
   O     63.31000000    58.80000000    54.41000000
   O     64.64000000    57.15000000    53.88000000
   H     66.49000000    58.17000000    52.64000000
   H     67.66000000    59.24000000    55.05000000
   H     65.64000000    60.08000000    54.40000000
   H     65.47000000    59.17000000    55.94000000
   N     67.73000000    56.14000000    54.96000000
   C     68.53000000    55.18000000    55.69000000
   C     67.67000000    54.15000000    56.41000000
   O     67.37000000    54.20000000    57.60000000
   H     67.66000000    56.00000000    53.96000000
   H     69.29000000    55.64000000    56.33000000
   H     69.14000000    54.78000000    54.88000000
   N     67.35000000    53.10000000    55.65000000
   C     66.47000000    52.01000000    56.03000000
   C     66.68000000    50.74000000    55.22000000
   O     66.17000000    49.67000000    55.57000000
   C     65.02000000    52.49000000    56.05000000
   C     64.61000000    53.22000000    54.78000000
   O     64.15000000    54.37000000    54.93000000
   O     64.70000000    52.65000000    53.68000000
   H     67.83000000    53.07000000    54.76000000
   H     66.71000000    51.68000000    57.04000000
   H     64.78000000    53.04000000    56.96000000
   H     64.39000000    51.60000000    56.05000000
   N     67.18000000    50.85000000    53.99000000
   C     67.19000000    49.73000000    53.07000000
   C     65.97000000    49.44000000    52.20000000
   O     65.66000000    48.33000000    51.79000000
   H     67.50000000    51.76000000    53.69000000
   H     67.50000000    48.82000000    53.58000000
   H     67.94000000    49.92000000    52.30000000
   N     65.21000000    50.52000000    52.03000000
   C     63.98000000    50.52000000    51.27000000
   C     63.85000000    51.70000000    50.32000000
   O     63.95000000    52.85000000    50.75000000
   C     62.82000000    50.49000000    52.26000000
   C     62.85000000    49.51000000    53.42000000
   C     61.62000000    49.46000000    54.33000000
   N     61.60000000    48.56000000    55.31000000
   O     60.73000000    50.31000000    54.33000000
   H     65.35000000    51.27000000    52.70000000
   H     64.00000000    49.62000000    50.65000000
   H     61.98000000    50.38000000    51.57000000
   H     62.79000000    51.46000000    52.76000000
   H     63.67000000    49.83000000    54.07000000
   H     63.09000000    48.53000000    53.01000000
   H     62.43000000    48.02000000    55.51000000
   H     60.78000000    48.55000000    55.90000000
   N     63.58000000    51.52000000    49.03000000
   C     63.47000000    52.58000000    48.05000000
   C     62.03000000    53.05000000    47.95000000
   O     61.08000000    52.38000000    47.55000000
   C     64.08000000    52.25000000    46.69000000
   C     64.10000000    53.46000000    45.76000000
   C     65.49000000    51.68000000    46.85000000
   H     63.45000000    50.61000000    48.61000000
   H     63.96000000    53.47000000    48.45000000
   H     63.60000000    51.42000000    46.16000000
   H     63.10000000    53.77000000    45.47000000
   H     64.70000000    54.23000000    46.25000000
   H     64.52000000    53.16000000    44.80000000
   H     65.30000000    50.72000000    47.32000000
   H     65.89000000    51.57000000    45.84000000
   H     66.07000000    52.28000000    47.55000000
   N     61.77000000    54.31000000    48.32000000
   C     60.54000000    55.05000000    48.13000000
   C     60.49000000    55.81000000    46.82000000
   O     61.53000000    55.92000000    46.16000000
   C     60.29000000    55.88000000    49.39000000
   C     61.18000000    57.01000000    49.89000000
   N     61.15000000    58.19000000    49.28000000
   O     61.89000000    56.87000000    50.88000000
   H     62.44000000    54.80000000    48.89000000
   H     59.76000000    54.29000000    48.13000000
   H     60.13000000    55.21000000    50.24000000
   H     59.32000000    56.32000000    49.17000000
   H     60.39000000    58.45000000    48.66000000
   H     61.60000000    58.95000000    49.76000000
   N     59.40000000    56.36000000    46.27000000
   C     59.34000000    56.90000000    44.92000000
   C     60.23000000    58.12000000    44.76000000
   O     60.88000000    58.35000000    43.74000000
   C     57.89000000    57.09000000    44.46000000
   C     57.74000000    57.56000000    43.04000000
   C     58.32000000    56.89000000    41.95000000
   C     56.88000000    58.64000000    42.82000000
   C     58.04000000    57.28000000    40.64000000
   C     56.72000000    59.10000000    41.51000000
   C     57.13000000    58.33000000    40.41000000
   O     56.74000000    58.65000000    39.14000000
   H     58.55000000    56.44000000    46.81000000
   H     59.77000000    56.13000000    44.29000000
   H     57.50000000    57.88000000    45.09000000
   H     57.32000000    56.16000000    44.51000000
   H     58.89000000    55.98000000    42.08000000
   H     56.54000000    59.19000000    43.69000000
   H     58.33000000    56.58000000    39.87000000
   H     56.10000000    59.98000000    41.37000000
   H     56.18000000    59.42000000    39.26000000
   N     60.32000000    59.04000000    45.73000000
   C     61.20000000    60.19000000    45.70000000
   C     62.68000000    59.83000000    45.60000000
   O     63.44000000    60.51000000    44.91000000
   C     61.00000000    61.02000000    46.96000000
   C     61.91000000    62.22000000    47.20000000
   C     61.50000000    63.10000000    48.37000000
   O     62.16000000    63.12000000    49.43000000
   O     60.55000000    63.90000000    48.22000000
   H     59.78000000    58.94000000    46.58000000
   H     60.98000000    60.78000000    44.81000000
   H     61.05000000    60.36000000    47.82000000
   H     59.96000000    61.36000000    47.02000000
   H     62.02000000    62.80000000    46.29000000
   H     62.90000000    61.76000000    47.29000000
   N     63.08000000    58.73000000    46.23000000
   C     64.40000000    58.14000000    46.07000000
   C     64.56000000    57.57000000    44.67000000
   O     65.64000000    57.64000000    44.09000000
   C     64.58000000    57.04000000    47.12000000
   C     64.76000000    57.57000000    48.53000000
   C     64.68000000    56.56000000    49.67000000
   O     65.24000000    56.90000000    50.74000000
   O     64.05000000    55.49000000    49.65000000
   H     62.40000000    58.13000000    46.67000000
   H     65.15000000    58.93000000    46.12000000
   H     65.37000000    56.31000000    46.93000000
   H     63.63000000    56.50000000    47.19000000
   H     64.09000000    58.42000000    48.65000000
   H     65.74000000    58.04000000    48.52000000
   N     63.50000000    57.03000000    44.07000000
   C     63.44000000    56.46000000    42.73000000
   H     63.20500000    57.24600000    42.01200000
   H     64.40400000    56.01600000    42.48000000
   H     62.66600000    55.69300000    42.69500000
   H     62.63000000    56.92000000    44.58000000
  Ca     64.42000000    55.07000000    52.37000000
   O     61.89000000    54.42000000    52.55000000
   H     61.33000000    53.71000000    52.23000000
   H     61.31000000    54.99000000    53.04000000

Ca 1.70



