%chk=loop1.cluster144.chk
%nprocshared=48
%mem=10GB
%nosave
#b3lyp/svp scf=(tight,noincore) Test 
#IOP(5/87=12) Density=Current Pop=(MK,readradii) iop(6/33=2) iop(6/42=6)

loop1.cluster144 

   0  1 
   C     34.08000000    45.39000000    15.15000000
   C     35.27000000    46.19000000    14.64000000
   O     35.86000000    45.75000000    13.66000000
   H     33.22500000    45.55200000    14.49300000
   H     34.33200000    44.33000000    15.16200000
   H     33.82800000    45.71500000    16.15900000
   N     35.51000000    47.36000000    15.23000000
   C     36.29000000    48.43000000    14.63000000
   C     36.03000000    48.83000000    13.18000000
   O     36.92000000    49.26000000    12.45000000
   C     37.74000000    48.11000000    14.97000000
   C     38.69000000    49.31000000    15.00000000
   O     38.25000000    50.48000000    15.01000000
   O     39.90000000    49.02000000    15.01000000
   H     35.01000000    47.48000000    16.09000000
   H     36.08000000    49.32000000    15.23000000
   H     38.22000000    47.31000000    14.41000000
   H     37.81000000    47.65000000    15.95000000
   N     34.81000000    48.56000000    12.72000000
   C     34.32000000    48.80000000    11.38000000
   C     33.44000000    50.01000000    11.10000000
   O     33.47000000    50.42000000     9.94000000
   C     33.56000000    47.50000000    11.13000000
   C     33.22000000    47.17000000     9.68000000
   C     32.83000000    45.70000000     9.53000000
   C     31.59000000    45.36000000    10.36000000
   N     31.02000000    44.02000000    10.15000000
   H     34.10000000    48.27000000    13.38000000
   H     35.17000000    48.78000000    10.70000000
   H     32.65000000    47.59000000    11.72000000
   H     34.09000000    46.60000000    11.45000000
   H     34.15000000    47.38000000     9.15000000
   H     32.37000000    47.72000000     9.29000000
   H     33.69000000    45.18000000     9.95000000
   H     32.67000000    45.38000000     8.50000000
   H     30.84000000    46.05000000     9.97000000
   H     31.77000000    45.50000000    11.42000000
   H     30.23000000    43.94000000    10.77000000
   H     30.63000000    43.84000000     9.24000000
   H     31.77000000    43.34000000    10.14000000
   N     32.86000000    50.64000000    12.12000000
   C     32.06000000    51.85000000    12.10000000
   C     32.02000000    52.57000000    13.45000000
   O     31.77000000    53.77000000    13.54000000
   C     30.71000000    51.73000000    11.39000000
   C     30.07000000    53.11000000    11.34000000
   O     30.44000000    53.90000000    10.45000000
   O     29.30000000    53.51000000    12.24000000
   H     32.74000000    50.07000000    12.95000000
   H     32.68000000    52.54000000    11.53000000
   H     30.15000000    51.06000000    12.05000000
   H     30.83000000    51.36000000    10.38000000
   N     32.25000000    51.84000000    14.54000000
   C     32.41000000    52.37000000    15.88000000
   C     33.51000000    53.41000000    16.03000000
   O     34.65000000    52.97000000    16.16000000
   H     32.41000000    50.84000000    14.45000000
   H     32.69000000    51.59000000    16.59000000
   H     31.47000000    52.82000000    16.20000000
   N     33.18000000    54.70000000    15.95000000
   C     34.16000000    55.75000000    16.10000000
   C     34.71000000    55.84000000    17.52000000
   O     34.03000000    56.11000000    18.51000000
   C     33.64000000    57.06000000    15.51000000
   C     32.55000000    57.03000000    14.45000000
   O     32.74000000    57.21000000    13.23000000
   O     31.36000000    56.78000000    14.74000000
   H     32.20000000    54.90000000    15.81000000
   H     34.98000000    55.41000000    15.47000000
   H     34.52000000    57.57000000    15.12000000
   H     33.26000000    57.70000000    16.31000000
   N     36.01000000    55.64000000    17.73000000
   C     36.74000000    55.59000000    18.98000000
   C     36.60000000    54.28000000    19.75000000
   O     36.78000000    54.18000000    20.96000000
   H     36.59000000    55.51000000    16.91000000
   H     36.40000000    56.41000000    19.62000000
   H     37.78000000    55.75000000    18.71000000
   N     36.15000000    53.21000000    19.10000000
   C     35.80000000    51.98000000    19.78000000
   C     34.39000000    52.14000000    20.33000000
   O     33.58000000    52.66000000    19.57000000
   C     36.10000000    50.77000000    18.89000000
   C     35.86000000    49.49000000    19.68000000
   O     35.23000000    50.77000000    17.78000000
   H     35.73000000    53.29000000    18.18000000
   H     36.49000000    51.85000000    20.61000000
   H     37.15000000    50.78000000    18.58000000
   H     35.43000000    51.54000000    17.25000000
   H     36.43000000    49.52000000    20.61000000
   H     34.80000000    49.37000000    19.88000000
   H     36.28000000    48.68000000    19.09000000
   N     34.15000000    51.72000000    21.58000000
   C     32.87000000    51.78000000    22.25000000
   C     33.01000000    52.53000000    23.57000000
   O     32.00000000    52.73000000    24.24000000
   C     32.13000000    50.45000000    22.35000000
   C     32.87000000    49.43000000    23.21000000
   C     31.78000000    49.91000000    20.96000000
   C     32.16000000    48.10000000    23.44000000
   H     35.00000000    51.41000000    22.03000000
   H     32.22000000    52.44000000    21.67000000
   H     31.22000000    50.58000000    22.93000000
   H     33.01000000    49.89000000    24.18000000
   H     33.76000000    49.09000000    22.68000000
   H     31.76000000    50.74000000    20.25000000
   H     32.60000000    49.28000000    20.60000000
   H     30.78000000    49.52000000    20.81000000
   H     31.15000000    48.22000000    23.83000000
   H     32.14000000    47.50000000    22.53000000
   H     32.75000000    47.52000000    24.15000000
   N     34.16000000    53.12000000    23.89000000
   C     34.46000000    53.65000000    25.21000000
   C     35.75000000    52.98000000    25.65000000
   O     36.70000000    52.89000000    24.86000000
   C     34.59000000    55.17000000    25.25000000
   C     33.34000000    55.89000000    24.76000000
   O     34.92000000    55.49000000    26.58000000
   H     34.98000000    52.77000000    23.42000000
   H     33.70000000    53.41000000    25.96000000
   H     35.48000000    55.52000000    24.72000000
   H     34.43000000    56.25000000    26.91000000
   H     33.39000000    56.92000000    25.10000000
   H     33.27000000    55.80000000    23.68000000
   H     32.49000000    55.32000000    25.14000000
   N     35.77000000    52.56000000    26.91000000
   C     36.96000000    51.94000000    27.46000000
   C     36.75000000    50.59000000    28.14000000
   O     37.56000000    49.68000000    27.96000000
   C     37.67000000    52.89000000    28.42000000
   C     39.00000000    52.40000000    28.99000000
   O     36.77000000    53.19000000    29.46000000
   H     35.00000000    52.90000000    27.47000000
   H     37.65000000    51.72000000    26.64000000
   H     37.86000000    53.88000000    27.99000000
   H     37.16000000    53.88000000    30.00000000
   H     39.34000000    53.26000000    29.58000000
   H     38.83000000    51.59000000    29.69000000
   H     39.72000000    52.13000000    28.22000000
   N     35.68000000    50.54000000    28.92000000
   C     35.26000000    49.37000000    29.68000000
   C     33.80000000    49.00000000    29.45000000
   O     32.97000000    49.89000000    29.28000000
   C     35.57000000    49.53000000    31.17000000
   C     37.00000000    49.70000000    31.66000000
   C     37.11000000    49.77000000    33.18000000
   C     36.71000000    51.16000000    33.67000000
   N     36.73000000    51.18000000    35.14000000
   H     35.27000000    51.43000000    29.16000000
   H     35.85000000    48.53000000    29.31000000
   H     35.14000000    48.69000000    31.71000000
   H     35.10000000    50.46000000    31.50000000
   H     37.41000000    50.62000000    31.24000000
   H     37.61000000    48.87000000    31.31000000
   H     38.13000000    49.52000000    33.47000000
   H     36.49000000    48.98000000    33.60000000
   H     35.73000000    51.43000000    33.29000000
   H     37.45000000    51.87000000    33.29000000
   H     35.82000000    51.26000000    35.58000000
   H     37.10000000    50.31000000    35.50000000
   H     37.31000000    51.94000000    35.48000000
   N     33.49000000    47.71000000    29.31000000
   C     32.14000000    47.25000000    29.03000000
   C     31.78000000    47.19000000    27.55000000
   O     30.79000000    47.80000000    27.15000000
   C     31.77000000    45.97000000    29.77000000
   C     31.47000000    46.06000000    31.26000000
   C     31.14000000    44.73000000    31.93000000
   O     31.67000000    43.61000000    31.74000000
   O     30.20000000    44.81000000    32.75000000
   H     34.25000000    47.07000000    29.47000000
   H     31.47000000    48.02000000    29.42000000
   H     32.52000000    45.19000000    29.73000000
   H     30.85000000    45.52000000    29.39000000
   H     30.60000000    46.72000000    31.34000000
   H     32.30000000    46.56000000    31.76000000
   N     32.39000000    46.37000000    26.70000000
   C     33.61000000    45.60000000    26.91000000
   H     34.39300000    46.25700000    27.28700000
   H     33.42100000    44.80900000    27.63500000
   H     33.92900000    45.15900000    25.96600000
   H     31.93000000    46.20000000    25.82000000
  Ca     30.64000000    55.91000000    12.25000000
   O     33.01000000    55.42000000    10.75000000
   H     33.74000000    55.11000000    11.31000000
   H     33.29000000    55.22000000     9.86000000
   O     31.14000000    57.43000000    10.09000000
   H     30.89000000    58.30000000     9.78000000
   H     31.90000000    57.20000000     9.55000000
   O     28.26000000    56.58000000    11.41000000
   H     28.52000000    56.99000000    10.59000000
   H     27.36000000    56.29000000    11.27000000
   O     28.51000000    55.80000000    14.34000000
   H     28.60000000    56.18000000    15.21000000
   H     27.59000000    55.58000000    14.27000000
   O     29.81000000    58.87000000    12.59000000
   H     29.13000000    58.94000000    13.25000000
   H     29.86000000    59.74000000    12.20000000

Ca 1.70



