%chk=loop4.cluster23.chk
%nprocshared=48
%mem=10GB
%nosave
#b3lyp/svp scf=(tight,noincore) Test 
#IOP(5/87=12) Density=Current Pop=(MK,readradii) iop(6/33=2) iop(6/42=6)

loop4.cluster23 

   -3  1 
   C     45.55000000    40.15000000    42.22000000
   C     45.11000000    39.65000000    43.59000000
   O     45.86000000    39.88000000    44.54000000
   H     46.57900000    39.84100000    42.03400000
   H     44.90000000    39.72900000    41.45300000
   H     45.48700000    41.23800000    42.19200000
   N     44.02000000    38.89000000    43.67000000
   C     43.39000000    38.32000000    44.84000000
   C     42.99000000    39.36000000    45.87000000
   O     43.30000000    39.29000000    47.06000000
   C     44.19000000    37.10000000    45.31000000
   C     44.40000000    36.16000000    44.13000000
   O     45.51000000    35.94000000    43.61000000
   O     43.38000000    35.55000000    43.73000000
   H     43.58000000    38.71000000    42.78000000
   H     42.52000000    37.78000000    44.47000000
   H     43.64000000    36.55000000    46.08000000
   H     45.09000000    37.47000000    45.79000000
   N     42.44000000    40.47000000    45.36000000
   C     42.16000000    41.76000000    45.95000000
   C     40.95000000    41.61000000    46.85000000
   O     39.93000000    41.01000000    46.51000000
   C     42.04000000    42.78000000    44.82000000
   C     41.87000000    44.20000000    45.34000000
   C     40.91000000    42.41000000    43.86000000
   C     42.16000000    45.21000000    44.24000000
   H     42.35000000    40.37000000    44.36000000
   H     43.02000000    42.09000000    46.54000000
   H     42.93000000    42.76000000    44.20000000
   H     42.60000000    44.37000000    46.13000000
   H     40.85000000    44.23000000    45.72000000
   H     40.93000000    41.33000000    43.78000000
   H     39.96000000    42.76000000    44.26000000
   H     40.84000000    42.88000000    42.87000000
   H     41.40000000    45.14000000    43.45000000
   H     42.00000000    46.18000000    44.72000000
   H     43.18000000    45.23000000    43.87000000
   N     40.98000000    42.05000000    48.11000000
   C     41.98000000    42.84000000    48.80000000
   C     43.09000000    42.02000000    49.44000000
   O     44.25000000    42.39000000    49.62000000
   C     41.20000000    43.72000000    49.77000000
   C     40.22000000    44.80000000    49.35000000
   O     40.06000000    45.12000000    48.15000000
   O     39.67000000    45.38000000    50.31000000
   H     40.12000000    41.91000000    48.62000000
   H     42.55000000    43.42000000    48.08000000
   H     41.98000000    44.21000000    50.36000000
   H     40.69000000    43.15000000    50.54000000
   N     42.66000000    40.83000000    49.89000000
   C     43.16000000    39.96000000    50.93000000
   C     43.63000000    40.74000000    52.15000000
   O     42.95000000    41.64000000    52.65000000
   H     41.72000000    40.60000000    49.62000000
   H     43.99000000    39.35000000    50.56000000
   H     42.35000000    39.26000000    51.12000000
   N     44.81000000    40.36000000    52.65000000
   C     45.46000000    41.21000000    53.62000000
   C     46.23000000    42.41000000    53.10000000
   O     47.05000000    42.97000000    53.82000000
   C     46.39000000    40.38000000    54.51000000
   C     46.85000000    41.09000000    55.78000000
   O     48.04000000    40.98000000    56.15000000
   O     46.01000000    41.74000000    56.44000000
   H     45.11000000    39.46000000    52.29000000
   H     44.72000000    41.68000000    54.27000000
   H     47.23000000    40.00000000    53.92000000
   H     45.98000000    39.43000000    54.83000000
   N     46.16000000    42.83000000    51.83000000
   C     46.85000000    43.94000000    51.21000000
   C     48.37000000    43.96000000    51.05000000
   O     48.84000000    44.81000000    50.30000000
   H     45.39000000    42.44000000    51.31000000
   H     46.58000000    44.78000000    51.84000000
   H     46.32000000    44.19000000    50.29000000
   N     49.08000000    42.94000000    51.53000000
   C     50.53000000    42.85000000    51.48000000
   C     51.17000000    43.00000000    50.11000000
   O     52.04000000    43.86000000    49.97000000
   C     51.10000000    43.76000000    52.56000000
   C     50.65000000    43.53000000    54.00000000
   C     50.51000000    44.88000000    54.70000000
   N     49.31000000    45.24000000    55.17000000
   O     51.44000000    45.60000000    55.04000000
   H     48.60000000    42.07000000    51.70000000
   H     50.80000000    41.85000000    51.83000000
   H     50.86000000    44.77000000    52.22000000
   H     52.18000000    43.68000000    52.46000000
   H     51.34000000    42.93000000    54.59000000
   H     49.67000000    43.06000000    53.91000000
   H     48.59000000    44.61000000    54.86000000
   H     49.27000000    46.05000000    55.77000000
   N     50.82000000    42.17000000    49.13000000
   C     51.02000000    42.39000000    47.71000000
   C     52.39000000    41.93000000    47.23000000
   O     52.94000000    40.90000000    47.61000000
   C     49.96000000    41.70000000    46.85000000
   C     49.68000000    40.25000000    47.24000000
   C     48.66000000    42.44000000    47.17000000
   H     50.11000000    41.51000000    49.39000000
   H     50.88000000    43.45000000    47.50000000
   H     50.15000000    41.78000000    45.78000000
   H     49.53000000    40.19000000    48.32000000
   H     48.82000000    39.90000000    46.66000000
   H     50.58000000    39.68000000    47.04000000
   H     48.39000000    42.23000000    48.21000000
   H     48.79000000    43.50000000    46.97000000
   H     47.78000000    42.13000000    46.60000000
   N     52.99000000    42.65000000    46.28000000
   C     54.28000000    42.48000000    45.65000000
   C     54.22000000    43.09000000    44.25000000
   O     53.49000000    44.05000000    44.03000000
   C     55.24000000    43.09000000    46.67000000
   C     56.73000000    42.94000000    46.43000000
   N     57.38000000    44.11000000    46.37000000
   O     57.30000000    41.89000000    46.14000000
   H     52.43000000    43.47000000    46.08000000
   H     54.42000000    41.41000000    45.54000000
   H     55.10000000    42.58000000    47.62000000
   H     54.94000000    44.10000000    46.97000000
   H     56.93000000    44.99000000    46.60000000
   H     58.29000000    44.13000000    45.95000000
   N     54.98000000    42.70000000    43.22000000
   C     54.81000000    43.09000000    41.84000000
   C     54.80000000    41.94000000    40.84000000
   O     55.25000000    42.04000000    39.70000000
   C     55.80000000    44.20000000    41.48000000
   C     57.24000000    43.75000000    41.53000000
   C     57.93000000    43.80000000    40.32000000
   C     57.87000000    43.50000000    42.75000000
   C     59.28000000    43.45000000    40.32000000
   C     59.19000000    43.02000000    42.76000000
   C     59.90000000    43.11000000    41.55000000
   O     61.24000000    42.92000000    41.70000000
   H     55.53000000    41.88000000    43.42000000
   H     53.85000000    43.58000000    41.69000000
   H     55.56000000    45.04000000    42.14000000
   H     55.55000000    44.54000000    40.48000000
   H     57.50000000    44.10000000    39.37000000
   H     57.36000000    43.52000000    43.70000000
   H     59.82000000    43.47000000    39.39000000
   H     59.64000000    42.68000000    43.68000000
   H     61.39000000    42.73000000    42.63000000
   N     54.22000000    40.79000000    41.19000000
   C     54.35000000    39.50000000    40.53000000
   C     53.43000000    39.54000000    39.32000000
   O     53.78000000    39.05000000    38.25000000
   C     54.15000000    38.39000000    41.56000000
   C     54.34000000    37.02000000    40.92000000
   C     55.79000000    36.59000000    40.76000000
   O     56.53000000    36.62000000    41.77000000
   O     56.20000000    36.20000000    39.65000000
   H     53.74000000    40.71000000    42.08000000
   H     55.34000000    39.42000000    40.09000000
   H     53.13000000    38.44000000    41.95000000
   H     54.91000000    38.50000000    42.34000000
   H     53.83000000    36.97000000    39.96000000
   H     53.89000000    36.33000000    41.63000000
   N     52.29000000    40.24000000    39.23000000
   C     51.30000000    40.57000000    40.24000000
   C     50.95000000    42.02000000    39.96000000
   O     51.79000000    42.89000000    40.16000000
   C     50.16000000    39.56000000    40.13000000
   C     50.52000000    38.29000000    40.90000000
   C     49.32000000    37.37000000    41.07000000
   O     48.48000000    37.76000000    41.91000000
   O     49.21000000    36.28000000    40.47000000
   H     52.04000000    40.46000000    38.28000000
   H     51.68000000    40.55000000    41.26000000
   H     49.96000000    39.33000000    39.08000000
   H     49.25000000    39.97000000    40.55000000
   H     50.77000000    38.68000000    41.88000000
   H     51.31000000    37.73000000    40.40000000
   N     49.77000000    42.35000000    39.44000000
   C     49.46000000    43.57000000    38.73000000
   H     48.58200000    44.03600000    39.17600000
   H     50.30600000    44.25400000    38.79500000
   H     49.25700000    43.34100000    37.68400000
   H     49.19000000    41.58000000    39.15000000
  Ca     46.90000000    35.58000000    41.47000000
   O     46.48000000    35.33000000    38.96000000
   H     47.02000000    35.95000000    38.47000000
   H     45.83000000    35.03000000    38.33000000
   O     48.47000000    34.61000000    43.40000000
   H     48.75000000    33.77000000    43.77000000
   H     49.06000000    35.25000000    43.80000000
   O     44.21000000    34.95000000    41.25000000
   H     43.72000000    35.34000000    41.97000000
   H     43.75000000    35.23000000    40.46000000
   O     46.96000000    32.94000000    40.71000000
   H     47.60000000    32.44000000    40.20000000
   H     46.22000000    32.35000000    40.82000000

Ca 1.70



