%chk=loop2.cluster230.chk
%nprocshared=48
%mem=10GB
%nosave
#b3lyp/svp scf=(tight,noincore) Test 
#IOP(5/87=12) Density=Current Pop=(MK,readradii) iop(6/33=2) iop(6/42=6)

loop2.cluster230 

   -2  1 
   C     87.84000000    83.37000000    39.07000000
   C     88.95000000    83.03000000    40.06000000
   O     89.42000000    83.91000000    40.78000000
   H     87.00200000    83.81800000    39.60400000
   H     88.21600000    84.07600000    38.32900000
   H     87.50700000    82.46000000    38.57000000
   N     89.30000000    81.75000000    40.19000000
   C     90.43000000    81.25000000    40.94000000
   C     90.18000000    81.08000000    42.44000000
   O     90.72000000    80.20000000    43.10000000
   C     90.94000000    79.99000000    40.25000000
   C     92.41000000    79.77000000    40.55000000
   O     92.89000000    78.63000000    40.36000000
   O     93.15000000    80.70000000    40.94000000
   H     88.70000000    81.07000000    39.72000000
   H     91.21000000    82.00000000    40.86000000
   H     90.86000000    80.19000000    39.18000000
   H     90.33000000    79.16000000    40.61000000
   N     89.38000000    81.98000000    43.02000000
   C     89.01000000    82.12000000    44.41000000
   C     87.63000000    82.75000000    44.49000000
   O     87.16000000    83.37000000    43.54000000
   C     90.07000000    82.99000000    45.09000000
   H     88.84000000    82.60000000    42.44000000
   H     89.03000000    81.12000000    44.83000000
   H     91.05000000    82.72000000    44.67000000
   H     90.02000000    84.05000000    44.86000000
   H     90.10000000    82.94000000    46.17000000
   N     86.86000000    82.54000000    45.57000000
   C     87.22000000    81.80000000    46.76000000
   C     87.15000000    80.28000000    46.71000000
   O     86.27000000    79.64000000    46.12000000
   C     86.49000000    82.35000000    47.98000000
   C     86.61000000    83.86000000    48.07000000
   O     87.69000000    84.37000000    48.44000000
   O     85.58000000    84.53000000    47.84000000
   H     86.04000000    83.13000000    45.61000000
   H     88.25000000    82.05000000    46.98000000
   H     86.97000000    81.94000000    48.86000000
   H     85.43000000    82.10000000    47.88000000
   N     88.00000000    79.60000000    47.47000000
   C     88.04000000    78.15000000    47.54000000
   C     88.75000000    77.60000000    46.31000000
   O     89.70000000    78.24000000    45.87000000
   H     88.80000000    80.15000000    47.77000000
   H     87.05000000    77.70000000    47.54000000
   H     88.60000000    77.82000000    48.41000000
   N     88.43000000    76.43000000    45.77000000
   C     87.56000000    75.37000000    46.26000000
   C     86.06000000    75.62000000    46.21000000
   O     85.33000000    74.72000000    46.61000000
   C     88.03000000    74.01000000    45.74000000
   C     88.05000000    73.04000000    46.91000000
   N     86.92000000    72.57000000    47.44000000
   O     89.15000000    72.72000000    47.38000000
   H     88.93000000    76.21000000    44.91000000
   H     87.81000000    75.23000000    47.31000000
   H     89.04000000    74.05000000    45.32000000
   H     87.43000000    73.63000000    44.92000000
   H     86.11000000    73.11000000    47.16000000
   H     86.93000000    71.91000000    48.20000000
   N     85.52000000    76.76000000    45.77000000
   C     84.11000000    77.02000000    45.57000000
   C     83.55000000    77.63000000    46.85000000
   O     82.35000000    77.51000000    47.06000000
   H     86.17000000    77.49000000    45.50000000
   H     83.50000000    76.13000000    45.40000000
   H     83.97000000    77.66000000    44.70000000
   N     84.28000000    78.25000000    47.78000000
   C     83.80000000    78.74000000    49.06000000
   C     83.21000000    80.14000000    48.95000000
   O     83.43000000    80.98000000    49.83000000
   C     84.97000000    78.69000000    50.04000000
   C     84.62000000    78.78000000    51.52000000
   O     85.76000000    77.52000000    49.95000000
   H     85.27000000    78.37000000    47.61000000
   H     83.12000000    78.02000000    49.52000000
   H     85.58000000    79.54000000    49.75000000
   H     86.61000000    77.79000000    50.29000000
   H     84.18000000    79.74000000    51.79000000
   H     83.86000000    78.06000000    51.82000000
   H     85.41000000    78.60000000    52.26000000
   N     82.47000000    80.43000000    47.88000000
   C     82.07000000    81.79000000    47.56000000
   C     80.80000000    82.21000000    48.29000000
   O     80.20000000    81.35000000    48.92000000
   C     81.97000000    82.03000000    46.06000000
   C     83.35000000    81.91000000    45.43000000
   C     81.02000000    81.04000000    45.39000000
   C     83.36000000    82.10000000    43.92000000
   H     82.18000000    79.66000000    47.30000000
   H     82.88000000    82.41000000    47.94000000
   H     81.66000000    83.05000000    45.83000000
   H     83.87000000    81.01000000    45.77000000
   H     83.79000000    82.83000000    45.82000000
   H     81.30000000    80.05000000    45.76000000
   H     80.01000000    81.20000000    45.76000000
   H     80.98000000    81.11000000    44.30000000
   H     84.34000000    82.36000000    43.51000000
   H     83.05000000    81.12000000    43.58000000
   H     82.60000000    82.84000000    43.64000000
   N     80.33000000    83.46000000    48.18000000
   C     79.12000000    84.02000000    48.75000000
   C     78.11000000    84.34000000    47.66000000
   O     78.38000000    84.12000000    46.49000000
   C     79.37000000    85.33000000    49.49000000
   C     80.65000000    85.28000000    50.33000000
   O     80.79000000    84.47000000    51.27000000
   O     81.60000000    86.02000000    49.99000000
   H     80.98000000    84.15000000    47.83000000
   H     78.67000000    83.25000000    49.38000000
   H     78.55000000    85.59000000    50.16000000
   H     79.43000000    86.17000000    48.80000000
   N     76.89000000    84.77000000    47.99000000
   C     75.68000000    84.89000000    47.20000000
   C     75.89000000    85.49000000    45.82000000
   O     75.81000000    84.80000000    44.81000000
   C     75.14000000    83.46000000    47.11000000
   C     73.64000000    83.49000000    46.92000000
   C     73.11000000    83.60000000    45.63000000
   C     72.76000000    83.54000000    48.00000000
   C     71.74000000    83.63000000    45.39000000
   C     71.38000000    83.38000000    47.82000000
   C     70.92000000    83.38000000    46.49000000
   H     76.69000000    84.72000000    48.98000000
   H     74.93000000    85.48000000    47.74000000
   H     75.36000000    82.94000000    48.04000000
   H     75.69000000    82.87000000    46.38000000
   H     73.81000000    83.48000000    44.81000000
   H     73.18000000    83.67000000    48.99000000
   H     71.45000000    83.56000000    44.35000000
   H     70.65000000    83.38000000    48.61000000
   H     69.85000000    83.21000000    46.40000000
   N     76.06000000    86.79000000    45.58000000
   C     76.17000000    87.33000000    44.24000000
   C     77.53000000    86.99000000    43.65000000
   O     77.67000000    87.12000000    42.43000000
   C     75.87000000    88.83000000    44.33000000
   C     76.34000000    89.14000000    45.74000000
   C     76.12000000    87.87000000    46.55000000
   H     75.41000000    86.87000000    43.61000000
   H     76.27000000    89.43000000    43.52000000
   H     74.79000000    88.98000000    44.35000000
   H     77.38000000    89.48000000    45.72000000
   H     75.77000000    89.95000000    46.19000000
   H     77.03000000    87.76000000    47.14000000
   H     75.28000000    87.81000000    47.24000000
   N     78.55000000    86.60000000    44.41000000
   C     79.88000000    86.16000000    44.01000000
   C     79.84000000    84.92000000    43.13000000
   O     80.62000000    84.74000000    42.20000000
   C     80.74000000    86.12000000    45.27000000
   C     82.23000000    85.88000000    45.05000000
   C     82.94000000    85.98000000    46.39000000
   O     82.65000000    85.16000000    47.29000000
   O     83.73000000    86.93000000    46.61000000
   H     78.30000000    86.51000000    45.38000000
   H     80.19000000    86.99000000    43.38000000
   H     80.38000000    85.35000000    45.96000000
   H     80.70000000    87.08000000    45.79000000
   H     82.65000000    86.47000000    44.23000000
   H     82.46000000    84.85000000    44.78000000
   N     78.91000000    84.01000000    43.42000000
   C     78.48000000    82.87000000    42.64000000
   H     77.57200000    83.12600000    42.09400000
   H     79.26400000    82.59600000    41.93400000
   H     78.27900000    82.03000000    43.30400000
   H     78.32000000    84.28000000    44.20000000
  Ca     84.11000000    86.01000000    49.25000000
   O     83.35000000    83.83000000    50.49000000
   H     83.28000000    82.89000000    50.33000000
   H     82.50000000    84.07000000    50.86000000
   O     85.29000000    88.50000000    48.27000000
   H     84.93000000    89.08000000    47.59000000
   H     85.64000000    89.09000000    48.93000000
   O     84.89000000    85.64000000    51.83000000
   H     84.27000000    85.04000000    52.24000000
   H     85.57000000    85.77000000    52.49000000
   O     83.80000000    88.08000000    51.04000000
   H     83.83000000    89.00000000    50.79000000
   H     83.46000000    88.08000000    51.93000000
   O     86.69000000    86.48000000    49.84000000
   H     86.97000000    85.61000000    49.55000000
   H     87.23000000    87.09000000    49.33000000
   O     81.86000000    88.38000000    48.88000000
   H     81.20000000    88.22000000    48.21000000
   H     81.68000000    87.74000000    49.57000000

Ca 1.70



