%chk=loop3.cluster46.chk
%nprocshared=48
%mem=10GB
%nosave
#b3lyp/svp scf=(tight,noincore) Test 
#IOP(5/87=12) Density=Current Pop=(MK,readradii) iop(6/33=2) iop(6/42=6)

loop3.cluster46 

   0  1 
   C     55.67000000    48.71000000    40.41000000
   C     54.83000000    48.75000000    41.69000000
   O     55.08000000    48.04000000    42.66000000
   H     56.65600000    48.30300000    40.63600000
   H     55.17700000    48.07900000    39.67100000
   H     55.77700000    49.72000000    40.01300000
   N     53.76000000    49.54000000    41.75000000
   C     52.95000000    49.67000000    42.94000000
   C     51.85000000    48.63000000    42.75000000
   O     50.75000000    48.91000000    42.29000000
   C     52.38000000    51.08000000    43.02000000
   C     51.40000000    51.21000000    44.18000000
   O     50.64000000    52.20000000    44.18000000
   O     51.33000000    50.36000000    45.09000000
   H     53.59000000    50.16000000    40.96000000
   H     53.52000000    49.55000000    43.87000000
   H     51.83000000    51.31000000    42.11000000
   H     53.13000000    51.83000000    43.26000000
   N     52.15000000    47.39000000    43.15000000
   C     51.44000000    46.14000000    43.02000000
   C     50.12000000    46.21000000    43.77000000
   O     49.09000000    45.90000000    43.17000000
   C     52.25000000    44.99000000    43.61000000
   C     53.57000000    44.74000000    42.89000000
   C     53.32000000    44.57000000    41.40000000
   C     54.51000000    44.13000000    40.55000000
   N     54.07000000    43.91000000    39.16000000
   H     52.99000000    47.26000000    43.68000000
   H     51.25000000    45.93000000    41.96000000
   H     51.67000000    44.07000000    43.64000000
   H     52.53000000    45.27000000    44.63000000
   H     53.98000000    43.82000000    43.32000000
   H     54.34000000    45.52000000    42.96000000
   H     53.09000000    45.54000000    40.96000000
   H     52.54000000    43.81000000    41.30000000
   H     54.91000000    43.19000000    40.90000000
   H     55.29000000    44.89000000    40.60000000
   H     53.29000000    43.27000000    39.21000000
   H     53.94000000    44.84000000    38.77000000
   H     54.81000000    43.41000000    38.70000000
   N     50.03000000    46.64000000    45.04000000
   C     48.84000000    46.53000000    45.85000000
   C     47.91000000    47.73000000    45.69000000
   O     46.79000000    47.83000000    46.20000000
   C     49.26000000    46.39000000    47.31000000
   C     50.09000000    47.49000000    47.95000000
   O     50.39000000    47.28000000    49.14000000
   O     50.37000000    48.55000000    47.34000000
   H     50.81000000    47.13000000    45.44000000
   H     48.21000000    45.68000000    45.59000000
   H     49.77000000    45.44000000    47.49000000
   H     48.32000000    46.33000000    47.86000000
   N     48.34000000    48.69000000    44.88000000
   C     47.63000000    49.88000000    44.44000000
   C     47.35000000    50.82000000    45.61000000
   O     46.20000000    51.17000000    45.84000000
   H     49.22000000    48.59000000    44.40000000
   H     46.69000000    49.56000000    44.00000000
   H     48.23000000    50.53000000    43.80000000
   N     48.41000000    51.20000000    46.32000000
   C     48.33000000    52.00000000    47.52000000
   C     48.90000000    53.41000000    47.47000000
   O     48.55000000    54.24000000    48.30000000
   C     48.84000000    51.25000000    48.75000000
   C     50.33000000    51.29000000    49.07000000
   N     50.69000000    51.10000000    50.34000000
   O     51.18000000    51.65000000    48.26000000
   H     49.29000000    50.85000000    45.98000000
   H     47.29000000    52.24000000    47.73000000
   H     48.62000000    50.18000000    48.75000000
   H     48.37000000    51.72000000    49.61000000
   H     49.95000000    51.02000000    51.02000000
   H     51.62000000    51.39000000    50.59000000
   N     49.77000000    53.62000000    46.48000000
   C     50.37000000    54.91000000    46.17000000
   C     51.89000000    55.00000000    46.21000000
   O     52.47000000    55.98000000    45.74000000
   H     49.85000000    52.90000000    45.77000000
   H     49.98000000    55.70000000    46.81000000
   H     50.05000000    55.24000000    45.19000000
   N     52.63000000    54.04000000    46.77000000
   C     54.08000000    53.99000000    46.88000000
   C     54.62000000    52.66000000    46.36000000
   O     53.92000000    51.65000000    46.28000000
   C     54.61000000    54.34000000    48.26000000
   C     54.24000000    53.34000000    49.33000000
   C     53.21000000    53.69000000    50.21000000
   C     55.07000000    52.23000000    49.58000000
   C     52.95000000    52.85000000    51.30000000
   C     54.81000000    51.42000000    50.69000000
   C     53.76000000    51.73000000    51.58000000
   O     53.38000000    50.81000000    52.52000000
   H     52.18000000    53.21000000    47.12000000
   H     54.51000000    54.76000000    46.25000000
   H     54.20000000    55.32000000    48.49000000
   H     55.70000000    54.40000000    48.23000000
   H     52.55000000    54.54000000    50.08000000
   H     55.93000000    52.06000000    48.96000000
   H     52.14000000    53.05000000    51.98000000
   H     55.48000000    50.61000000    50.97000000
   H     53.95000000    50.07000000    52.30000000
   N     55.85000000    52.63000000    45.84000000
   C     56.56000000    51.39000000    45.63000000
   C     57.31000000    51.07000000    46.92000000
   O     58.04000000    51.93000000    47.42000000
   C     57.52000000    51.50000000    44.45000000
   C     56.79000000    51.99000000    43.20000000
   C     58.16000000    50.14000000    44.21000000
   C     57.59000000    52.78000000    42.16000000
   H     56.35000000    53.50000000    45.79000000
   H     55.87000000    50.60000000    45.35000000
   H     58.35000000    52.17000000    44.69000000
   H     55.98000000    52.67000000    43.44000000
   H     56.26000000    51.15000000    42.75000000
   H     58.65000000    49.73000000    45.10000000
   H     57.45000000    49.45000000    43.75000000
   H     58.93000000    50.25000000    43.45000000
   H     57.06000000    53.14000000    41.28000000
   H     58.07000000    53.66000000    42.58000000
   H     58.28000000    52.11000000    41.65000000
   N     57.18000000    49.84000000    47.42000000
   C     58.01000000    49.25000000    48.46000000
   C     59.30000000    48.62000000    47.95000000
   O     59.38000000    48.21000000    46.79000000
   C     57.18000000    48.19000000    49.19000000
   O     56.87000000    47.05000000    48.42000000
   H     56.57000000    49.17000000    46.98000000
   H     58.28000000    50.07000000    49.12000000
   H     56.25000000    48.64000000    49.52000000
   H     57.71000000    47.86000000    50.08000000
   H     56.00000000    47.15000000    48.03000000
   N     60.33000000    48.43000000    48.77000000
   C     61.52000000    47.66000000    48.46000000
   C     61.08000000    46.26000000    48.06000000
   O     61.70000000    45.62000000    47.22000000
   C     62.61000000    47.61000000    49.52000000
   H     60.28000000    48.81000000    49.71000000
   H     62.04000000    48.14000000    47.63000000
   H     62.41000000    46.91000000    50.33000000
   H     63.56000000    47.44000000    49.01000000
   H     62.59000000    48.54000000    50.09000000
   N     60.04000000    45.68000000    48.66000000
   C     59.61000000    44.34000000    48.29000000
   C     59.04000000    44.36000000    46.88000000
   O     59.34000000    43.46000000    46.11000000
   C     58.51000000    43.84000000    49.23000000
   H     59.67000000    46.09000000    49.50000000
   H     60.44000000    43.64000000    48.25000000
   H     57.70000000    44.56000000    49.12000000
   H     58.08000000    42.89000000    48.94000000
   H     58.90000000    43.79000000    50.24000000
   N     58.25000000    45.37000000    46.51000000
   C     57.66000000    45.47000000    45.19000000
   C     58.77000000    45.74000000    44.19000000
   O     58.76000000    45.16000000    43.11000000
   C     56.71000000    46.66000000    45.08000000
   C     55.40000000    46.27000000    45.74000000
   C     54.46000000    47.44000000    46.02000000
   O     53.24000000    47.28000000    45.80000000
   O     54.86000000    48.35000000    46.78000000
   H     57.90000000    45.93000000    47.27000000
   H     57.24000000    44.48000000    45.04000000
   H     56.55000000    46.87000000    44.02000000
   H     57.06000000    47.55000000    45.60000000
   H     55.57000000    45.78000000    46.70000000
   H     54.88000000    45.54000000    45.13000000
   N     59.75000000    46.60000000    44.48000000
   C     60.90000000    46.88000000    43.64000000
   H     61.75900000    46.31500000    44.00100000
   H     60.68000000    46.58800000    42.61300000
   H     61.12600000    47.94600000    43.67500000
   H     59.79000000    47.06000000    45.38000000
  Ca     52.59000000    49.60000000    47.14000000
   O     52.55000000    48.60000000    49.56000000
   H     51.77000000    48.06000000    49.58000000
   H     53.09000000    48.28000000    50.29000000

Ca 1.70



