%chk=loop4.cluster160.chk
%nprocshared=48
%mem=10GB
%nosave
#b3lyp/svp scf=(tight,noincore) Test 
#IOP(5/87=12) Density=Current Pop=(MK,readradii) iop(6/33=2) iop(6/42=6)

loop4.cluster160 

   -3  1 
   C     68.80000000    54.23000000    44.62000000
   C     68.14000000    54.86000000    45.84000000
   O     67.73000000    56.01000000    45.80000000
   H     69.80600000    53.90100000    44.88100000
   H     68.21200000    53.37300000    44.29000000
   H     68.85600000    54.96400000    43.81600000
   N     67.95000000    54.10000000    46.93000000
   C     67.43000000    54.54000000    48.21000000
   C     68.30000000    55.64000000    48.81000000
   O     69.43000000    55.41000000    49.24000000
   C     67.25000000    53.35000000    49.15000000
   C     66.66000000    53.72000000    50.51000000
   O     65.71000000    54.52000000    50.46000000
   O     67.20000000    53.28000000    51.55000000
   H     68.15000000    53.13000000    46.78000000
   H     66.43000000    54.93000000    48.02000000
   H     68.15000000    52.78000000    49.32000000
   H     66.49000000    52.69000000    48.72000000
   N     67.75000000    56.83000000    48.99000000
   C     68.37000000    58.03000000    49.53000000
   C     68.28000000    58.04000000    51.05000000
   O     69.26000000    58.14000000    51.78000000
   C     67.80000000    59.27000000    48.84000000
   C     67.93000000    59.28000000    47.32000000
   C     68.53000000    60.49000000    49.39000000
   C     67.29000000    60.46000000    46.60000000
   H     66.76000000    56.91000000    48.80000000
   H     69.45000000    58.01000000    49.40000000
   H     66.73000000    59.36000000    49.06000000
   H     67.47000000    58.36000000    46.98000000
   H     69.01000000    59.37000000    47.16000000
   H     69.56000000    60.56000000    49.06000000
   H     67.99000000    61.35000000    48.99000000
   H     68.39000000    60.50000000    50.48000000
   H     66.25000000    60.36000000    46.91000000
   H     67.55000000    61.48000000    46.89000000
   H     67.40000000    60.29000000    45.53000000
   N     67.03000000    57.98000000    51.53000000
   C     66.71000000    58.32000000    52.90000000
   C     66.95000000    57.15000000    53.84000000
   O     66.91000000    57.35000000    55.05000000
   C     65.31000000    58.88000000    53.07000000
   C     64.28000000    57.89000000    52.53000000
   O     63.26000000    58.22000000    51.89000000
   O     64.39000000    56.69000000    52.85000000
   H     66.32000000    57.78000000    50.84000000
   H     67.38000000    59.08000000    53.30000000
   H     65.19000000    59.83000000    52.54000000
   H     65.17000000    59.06000000    54.14000000
   N     67.27000000    55.92000000    53.43000000
   C     67.77000000    54.87000000    54.30000000
   C     66.82000000    53.89000000    54.98000000
   O     66.97000000    53.53000000    56.15000000
   H     67.13000000    55.67000000    52.46000000
   H     68.33000000    55.33000000    55.12000000
   H     68.42000000    54.25000000    53.70000000
   N     65.75000000    53.50000000    54.29000000
   C     64.74000000    52.53000000    54.65000000
   C     64.86000000    51.24000000    53.84000000
   O     64.14000000    50.33000000    54.25000000
   C     63.35000000    53.12000000    54.47000000
   C     63.05000000    53.69000000    53.09000000
   O     62.13000000    54.53000000    53.01000000
   O     63.68000000    53.35000000    52.06000000
   H     65.67000000    53.82000000    53.33000000
   H     64.86000000    52.12000000    55.65000000
   H     63.31000000    53.99000000    55.14000000
   H     62.54000000    52.45000000    54.74000000
   N     65.62000000    51.15000000    52.75000000
   C     65.56000000    49.98000000    51.90000000
   C     64.43000000    49.91000000    50.89000000
   O     64.36000000    48.98000000    50.10000000
   H     66.25000000    51.91000000    52.57000000
   H     65.50000000    49.05000000    52.48000000
   H     66.51000000    50.03000000    51.37000000
   N     63.59000000    50.96000000    50.83000000
   C     62.32000000    51.04000000    50.14000000
   C     62.38000000    52.24000000    49.21000000
   O     62.23000000    53.40000000    49.56000000
   C     61.22000000    51.17000000    51.19000000
   C     61.13000000    50.10000000    52.27000000
   C     59.98000000    50.33000000    53.25000000
   N     59.27000000    49.28000000    53.67000000
   O     59.71000000    51.39000000    53.81000000
   H     63.90000000    51.77000000    51.35000000
   H     62.11000000    50.14000000    49.56000000
   H     60.32000000    51.18000000    50.58000000
   H     61.29000000    52.15000000    51.67000000
   H     62.06000000    50.01000000    52.83000000
   H     61.04000000    49.15000000    51.75000000
   H     59.68000000    48.38000000    53.45000000
   H     58.56000000    49.47000000    54.36000000
   N     62.66000000    52.00000000    47.92000000
   C     62.93000000    52.99000000    46.90000000
   C     61.57000000    53.54000000    46.48000000
   O     60.80000000    52.93000000    45.74000000
   C     63.60000000    52.43000000    45.64000000
   C     63.81000000    53.48000000    44.55000000
   C     64.98000000    51.92000000    46.03000000
   H     62.59000000    51.05000000    47.59000000
   H     63.53000000    53.85000000    47.21000000
   H     62.99000000    51.70000000    45.10000000
   H     62.81000000    53.83000000    44.28000000
   H     64.36000000    54.34000000    44.91000000
   H     64.22000000    53.12000000    43.60000000
   H     64.85000000    51.19000000    46.83000000
   H     65.38000000    51.41000000    45.16000000
   H     65.61000000    52.75000000    46.36000000
   N     61.25000000    54.73000000    46.99000000
   C     60.02000000    55.44000000    46.70000000
   C     60.13000000    56.43000000    45.55000000
   O     61.25000000    56.73000000    45.14000000
   C     59.45000000    56.09000000    47.96000000
   C     60.38000000    57.01000000    48.74000000
   N     60.33000000    58.32000000    48.52000000
   O     61.10000000    56.52000000    49.61000000
   H     62.07000000    55.29000000    47.18000000
   H     59.24000000    54.71000000    46.48000000
   H     59.11000000    55.36000000    48.70000000
   H     58.56000000    56.67000000    47.74000000
   H     59.81000000    58.76000000    47.77000000
   H     60.75000000    58.90000000    49.22000000
   N     59.01000000    56.87000000    44.97000000
   C     58.99000000    57.34000000    43.60000000
   C     59.96000000    58.48000000    43.30000000
   O     60.57000000    58.40000000    42.24000000
   C     57.59000000    57.82000000    43.24000000
   C     57.40000000    58.10000000    41.77000000
   C     57.40000000    57.02000000    40.88000000
   C     57.54000000    59.39000000    41.26000000
   C     57.29000000    57.15000000    39.49000000
   C     57.51000000    59.55000000    39.87000000
   C     57.39000000    58.46000000    38.98000000
   O     57.47000000    58.70000000    37.64000000
   H     58.15000000    56.81000000    45.49000000
   H     59.25000000    56.52000000    42.94000000
   H     57.39000000    58.67000000    43.90000000
   H     56.86000000    57.03000000    43.42000000
   H     57.48000000    56.05000000    41.36000000
   H     57.66000000    60.32000000    41.79000000
   H     57.35000000    56.33000000    38.79000000
   H     57.44000000    60.55000000    39.49000000
   H     57.54000000    59.64000000    37.44000000
   N     60.19000000    59.38000000    44.26000000
   C     61.11000000    60.48000000    44.09000000
   C     62.57000000    60.06000000    44.05000000
   O     63.30000000    60.79000000    43.37000000
   C     60.74000000    61.49000000    45.17000000
   C     61.72000000    62.62000000    45.44000000
   C     61.02000000    63.71000000    46.24000000
   O     61.36000000    64.91000000    46.12000000
   O     60.13000000    63.41000000    47.06000000
   H     59.69000000    59.35000000    45.14000000
   H     60.92000000    60.85000000    43.08000000
   H     60.67000000    61.04000000    46.16000000
   H     59.77000000    61.91000000    44.91000000
   H     62.05000000    62.88000000    44.43000000
   H     62.57000000    62.22000000    46.01000000
   N     63.01000000    59.01000000    44.74000000
   C     64.36000000    58.49000000    44.58000000
   C     64.47000000    57.62000000    43.34000000
   O     65.57000000    57.50000000    42.80000000
   C     64.59000000    57.64000000    45.83000000
   C     64.19000000    58.18000000    47.20000000
   C     64.23000000    57.05000000    48.22000000
   O     64.82000000    57.19000000    49.32000000
   O     63.50000000    56.05000000    48.05000000
   H     62.37000000    58.42000000    45.25000000
   H     65.15000000    59.24000000    44.60000000
   H     65.60000000    57.25000000    45.88000000
   H     64.06000000    56.70000000    45.68000000
   H     63.17000000    58.57000000    47.23000000
   H     64.80000000    59.05000000    47.47000000
   N     63.37000000    57.17000000    42.72000000
   C     63.44000000    56.38000000    41.50000000
   H     64.46700000    56.36500000    41.13600000
   H     63.11400000    55.36100000    41.70700000
   H     62.79300000    56.82200000    40.74300000
   H     62.44000000    57.38000000    43.05000000
  Ca     63.26000000    55.58000000    50.80000000

Ca 1.70



