%chk=loop4.cluster158.chk
%nprocshared=48
%mem=10GB
%nosave
#b3lyp/svp scf=(tight,noincore) Test 
#IOP(5/87=12) Density=Current Pop=(MK,readradii) iop(6/33=2) iop(6/42=6)

loop4.cluster158 

   -3  1 
   C     44.94000000    45.18000000    30.86000000
   C     45.79000000    45.18000000    32.12000000
   O     46.98000000    44.89000000    31.97000000
   H     44.04900000    45.78600000    31.02400000
   H     45.51500000    45.59700000    30.03300000
   H     44.64500000    44.15800000    30.62000000
   N     45.49000000    45.68000000    33.33000000
   C     44.20000000    46.09000000    33.85000000
   C     44.18000000    47.45000000    34.53000000
   O     43.17000000    47.92000000    35.03000000
   C     43.65000000    45.00000000    34.75000000
   C     43.96000000    43.56000000    34.38000000
   O     43.54000000    43.07000000    33.30000000
   O     44.57000000    42.89000000    35.24000000
   H     46.29000000    45.78000000    33.93000000
   H     43.51000000    46.17000000    33.01000000
   H     42.57000000    45.16000000    34.71000000
   H     43.95000000    45.21000000    35.78000000
   N     45.25000000    48.25000000    34.43000000
   C     45.40000000    49.62000000    34.87000000
   C     45.80000000    49.65000000    36.34000000
   O     45.50000000    50.66000000    36.97000000
   C     46.44000000    50.31000000    33.99000000
   C     46.55000000    51.82000000    34.18000000
   C     47.85000000    49.73000000    34.05000000
   C     46.94000000    52.60000000    32.93000000
   H     46.08000000    47.79000000    34.09000000
   H     44.40000000    50.04000000    34.83000000
   H     46.18000000    50.07000000    32.96000000
   H     47.21000000    52.03000000    35.02000000
   H     45.55000000    52.20000000    34.40000000
   H     48.21000000    49.81000000    35.08000000
   H     47.89000000    48.73000000    33.62000000
   H     48.54000000    50.28000000    33.41000000
   H     47.70000000    52.07000000    32.36000000
   H     46.16000000    52.63000000    32.17000000
   H     47.41000000    53.55000000    33.13000000
   N     46.20000000    48.58000000    37.03000000
   C     46.64000000    48.60000000    38.41000000
   C     46.68000000    47.20000000    39.00000000
   O     46.44000000    47.04000000    40.20000000
   C     48.07000000    49.11000000    38.43000000
   C     48.55000000    49.21000000    39.87000000
   O     47.84000000    49.85000000    40.68000000
   O     49.67000000    48.79000000    40.21000000
   H     46.22000000    47.67000000    36.59000000
   H     45.95000000    49.16000000    39.05000000
   H     48.20000000    50.07000000    37.93000000
   H     48.72000000    48.46000000    37.84000000
   N     46.96000000    46.14000000    38.24000000
   C     47.11000000    44.74000000    38.61000000
   C     48.54000000    44.27000000    38.85000000
   O     49.52000000    45.01000000    38.71000000
   H     47.00000000    46.29000000    37.24000000
   H     46.63000000    44.15000000    37.84000000
   H     46.52000000    44.59000000    39.51000000
   N     48.68000000    42.95000000    38.99000000
   C     50.01000000    42.36000000    38.98000000
   C     50.12000000    41.43000000    40.18000000
   O     49.12000000    40.95000000    40.71000000
   C     50.28000000    41.56000000    37.71000000
   C     49.26000000    40.50000000    37.32000000
   O     48.41000000    40.61000000    36.41000000
   O     49.35000000    39.42000000    37.95000000
   H     47.89000000    42.34000000    39.00000000
   H     50.78000000    43.13000000    39.03000000
   H     51.25000000    41.06000000    37.71000000
   H     50.36000000    42.23000000    36.86000000
   N     51.30000000    41.11000000    40.72000000
   C     52.54000000    41.66000000    40.24000000
   C     52.79000000    43.08000000    40.72000000
   O     51.95000000    43.58000000    41.46000000
   H     51.31000000    40.52000000    41.55000000
   H     52.66000000    41.77000000    39.16000000
   H     53.33000000    41.03000000    40.67000000
   N     53.87000000    43.71000000    40.23000000
   C     54.76000000    43.39000000    39.14000000
   C     54.19000000    43.54000000    37.73000000
   O     52.98000000    43.55000000    37.50000000
   C     55.66000000    42.18000000    39.39000000
   C     56.63000000    42.25000000    40.57000000
   C     57.49000000    41.01000000    40.77000000
   N     58.40000000    41.00000000    41.74000000
   O     57.37000000    40.04000000    40.02000000
   H     54.02000000    44.59000000    40.70000000
   H     55.42000000    44.25000000    39.17000000
   H     56.28000000    41.99000000    38.51000000
   H     55.04000000    41.30000000    39.55000000
   H     56.09000000    42.35000000    41.51000000
   H     57.24000000    43.13000000    40.38000000
   H     58.49000000    41.77000000    42.39000000
   H     58.90000000    40.15000000    41.96000000
   N     55.17000000    43.62000000    36.83000000
   C     54.94000000    43.86000000    35.42000000
   C     55.99000000    44.74000000    34.75000000
   O     57.18000000    44.50000000    34.95000000
   C     54.72000000    42.58000000    34.60000000
   C     53.47000000    41.79000000    35.00000000
   C     55.93000000    41.65000000    34.67000000
   H     56.13000000    43.40000000    37.04000000
   H     53.97000000    44.34000000    35.30000000
   H     54.51000000    42.87000000    33.58000000
   H     52.68000000    42.54000000    34.96000000
   H     53.30000000    41.07000000    34.21000000
   H     53.66000000    41.30000000    35.96000000
   H     56.89000000    42.12000000    34.88000000
   H     55.71000000    40.93000000    35.46000000
   H     55.88000000    41.03000000    33.78000000
   N     55.57000000    45.65000000    33.87000000
   C     56.50000000    46.40000000    33.05000000
   C     56.42000000    46.00000000    31.58000000
   O     57.40000000    45.40000000    31.15000000
   C     56.35000000    47.89000000    33.34000000
   C     56.72000000    48.24000000    34.78000000
   N     55.81000000    48.31000000    35.75000000
   O     57.87000000    48.64000000    34.97000000
   H     54.59000000    45.87000000    33.94000000
   H     57.55000000    46.16000000    33.23000000
   H     55.30000000    48.18000000    33.28000000
   H     56.88000000    48.58000000    32.69000000
   H     54.89000000    47.92000000    35.64000000
   H     56.16000000    48.62000000    36.65000000
   N     55.27000000    46.27000000    30.95000000
   C     54.94000000    46.01000000    29.56000000
   C     54.84000000    44.53000000    29.19000000
   O     55.61000000    43.70000000    29.64000000
   C     55.77000000    46.85000000    28.60000000
   C     55.72000000    46.51000000    27.13000000
   C     56.67000000    45.60000000    26.65000000
   C     54.73000000    46.97000000    26.26000000
   C     56.65000000    45.07000000    25.35000000
   C     54.66000000    46.45000000    24.97000000
   C     55.57000000    45.46000000    24.54000000
   O     55.37000000    44.96000000    23.28000000
   H     54.57000000    46.72000000    31.52000000
   H     53.94000000    46.42000000    29.47000000
   H     56.80000000    46.68000000    28.91000000
   H     55.60000000    47.91000000    28.75000000
   H     57.47000000    45.19000000    27.25000000
   H     53.96000000    47.64000000    26.61000000
   H     57.38000000    44.44000000    24.87000000
   H     53.96000000    46.89000000    24.27000000
   H     54.59000000    45.38000000    22.92000000
   N     53.83000000    44.21000000    28.37000000
   C     53.53000000    42.91000000    27.82000000
   C     52.02000000    42.73000000    27.68000000
   O     51.38000000    42.79000000    26.63000000
   C     54.24000000    42.67000000    26.49000000
   C     54.11000000    41.31000000    25.80000000
   C     54.53000000    40.12000000    26.65000000
   O     55.67000000    40.07000000    27.17000000
   O     53.69000000    39.22000000    26.87000000
   H     53.25000000    44.96000000    28.02000000
   H     53.80000000    42.23000000    28.62000000
   H     55.31000000    42.79000000    26.64000000
   H     53.98000000    43.44000000    25.77000000
   H     54.68000000    41.23000000    24.87000000
   H     53.06000000    41.16000000    25.55000000
   N     51.39000000    42.64000000    28.85000000
   C     49.95000000    42.53000000    28.85000000
   C     49.19000000    43.85000000    28.89000000
   O     48.29000000    44.08000000    28.09000000
   C     49.47000000    41.71000000    30.05000000
   C     49.90000000    40.26000000    29.86000000
   C     49.77000000    39.53000000    31.19000000
   O     50.33000000    39.95000000    32.22000000
   O     49.16000000    38.44000000    31.19000000
   H     51.91000000    42.62000000    29.72000000
   H     49.60000000    41.96000000    27.99000000
   H     48.39000000    41.75000000    30.19000000
   H     50.08000000    42.00000000    30.90000000
   H     50.94000000    40.21000000    29.55000000
   H     49.33000000    39.67000000    29.14000000
   N     49.60000000    44.80000000    29.74000000
   C     49.53000000    46.24000000    29.59000000
   H     48.68600000    46.62400000    30.16300000
   H     50.45300000    46.68900000    29.95700000
   H     49.39700000    46.49000000    28.53700000
   H     50.16000000    44.50000000    30.52000000
  Ca     50.49000000    37.68000000    33.53000000
   O     52.87000000    38.27000000    32.39000000
   H     53.57000000    38.51000000    33.00000000
   H     53.33000000    37.98000000    31.61000000
   O     48.23000000    38.92000000    34.33000000
   H     47.39000000    39.13000000    33.93000000
   H     48.27000000    39.45000000    35.12000000
   O     52.39000000    36.42000000    34.88000000
   H     53.32000000    36.34000000    34.64000000
   H     52.30000000    35.87000000    35.66000000
   O     50.08000000    37.49000000    36.15000000
   H     50.15000000    36.69000000    36.67000000
   H     49.90000000    38.17000000    36.80000000
   O     51.46000000    39.56000000    35.04000000
   H     51.75000000    39.10000000    35.83000000
   H     51.73000000    40.47000000    35.18000000
   O     48.68000000    35.79000000    33.75000000
   H     48.49000000    34.94000000    34.16000000
   H     47.84000000    36.25000000    33.74000000
   O     50.82000000    35.82000000    31.76000000
   H     51.04000000    34.90000000    31.94000000
   H     50.58000000    35.83000000    30.83000000

Ca 1.70



