%chk=loop1.cluster3.chk
%nprocshared=48
%mem=10GB
%nosave
#b3lyp/svp scf=(tight,noincore) Test 
#IOP(5/87=12) Density=Current Pop=(MK,readradii) iop(6/33=2) iop(6/42=6)

loop1.cluster3 

   0  1 
   C     57.54000000    38.79000000    29.48000000
   C     58.53000000    37.88000000    28.76000000
   O     58.31000000    36.67000000    28.79000000
   H     56.60300000    38.25600000    29.63500000
   H     57.95300000    39.08600000    30.44400000
   H     57.35500000    39.67800000    28.87500000
   N     59.68000000    38.44000000    28.38000000
   C     60.80000000    37.75000000    27.78000000
   C     61.59000000    37.05000000    28.87000000
   O     62.59000000    37.59000000    29.36000000
   C     61.63000000    38.71000000    26.94000000
   C     62.81000000    38.01000000    26.29000000
   O     63.83000000    38.71000000    26.07000000
   O     62.74000000    36.78000000    26.10000000
   H     59.76000000    39.42000000    28.62000000
   H     60.42000000    36.91000000    27.18000000
   H     62.06000000    39.54000000    27.50000000
   H     60.94000000    39.06000000    26.17000000
   N     61.30000000    35.83000000    29.31000000
   C     61.86000000    35.11000000    30.44000000
   C     63.07000000    34.22000000    30.22000000
   O     63.57000000    33.67000000    31.20000000
   C     60.76000000    34.41000000    31.23000000
   C     59.75000000    35.31000000    31.93000000
   C     58.80000000    34.52000000    32.82000000
   C     57.57000000    35.26000000    33.34000000
   N     57.04000000    34.75000000    34.61000000
   H     60.50000000    35.39000000    28.87000000
   H     62.24000000    35.90000000    31.09000000
   H     61.27000000    33.97000000    32.08000000
   H     60.15000000    33.75000000    30.61000000
   H     59.07000000    35.77000000    31.21000000
   H     60.19000000    36.06000000    32.59000000
   H     59.42000000    34.27000000    33.69000000
   H     58.53000000    33.63000000    32.26000000
   H     56.77000000    35.29000000    32.60000000
   H     57.90000000    36.29000000    33.48000000
   H     56.31000000    35.35000000    34.98000000
   H     56.74000000    33.79000000    34.49000000
   H     57.76000000    34.55000000    35.29000000
   N     63.42000000    34.01000000    28.94000000
   C     64.63000000    33.40000000    28.43000000
   C     65.57000000    34.48000000    27.91000000
   O     66.69000000    34.08000000    27.60000000
   C     64.20000000    32.38000000    27.38000000
   C     63.35000000    32.77000000    26.18000000
   O     62.77000000    31.94000000    25.44000000
   O     63.49000000    33.95000000    25.76000000
   H     62.74000000    34.30000000    28.25000000
   H     65.09000000    32.79000000    29.21000000
   H     63.66000000    31.64000000    27.98000000
   H     65.09000000    31.87000000    27.02000000
   N     65.07000000    35.69000000    27.67000000
   C     65.82000000    36.93000000    27.56000000
   C     66.41000000    37.20000000    26.18000000
   O     67.40000000    37.92000000    26.11000000
   H     64.07000000    35.80000000    27.57000000
   H     66.67000000    36.90000000    28.23000000
   H     65.14000000    37.75000000    27.78000000
   N     65.82000000    36.55000000    25.17000000
   C     66.50000000    36.50000000    23.89000000
   C     66.37000000    37.84000000    23.18000000
   O     66.71000000    37.92000000    22.00000000
   C     65.96000000    35.30000000    23.12000000
   C     64.52000000    35.30000000    22.63000000
   O     63.85000000    36.36000000    22.66000000
   O     64.01000000    34.22000000    22.27000000
   H     65.20000000    35.79000000    25.42000000
   H     67.53000000    36.27000000    24.18000000
   H     66.19000000    34.41000000    23.71000000
   H     66.54000000    35.25000000    22.20000000
   N     65.67000000    38.81000000    23.77000000
   C     65.29000000    40.06000000    23.14000000
   C     64.04000000    40.11000000    22.28000000
   O     63.78000000    41.10000000    21.59000000
   H     65.29000000    38.64000000    24.69000000
   H     66.09000000    40.48000000    22.54000000
   H     65.04000000    40.72000000    23.97000000
   N     63.21000000    39.08000000    22.40000000
   C     61.95000000    39.07000000    21.68000000
   C     60.84000000    38.48000000    22.54000000
   O     61.07000000    37.77000000    23.52000000
   C     62.03000000    38.41000000    20.31000000
   C     62.92000000    39.15000000    19.32000000
   O     62.67000000    37.16000000    20.46000000
   H     63.48000000    38.22000000    22.86000000
   H     61.75000000    40.14000000    21.57000000
   H     61.01000000    38.26000000    19.96000000
   H     63.29000000    37.16000000    21.19000000
   H     63.95000000    39.10000000    19.65000000
   H     62.85000000    38.77000000    18.30000000
   H     62.63000000    40.20000000    19.34000000
   N     59.58000000    38.68000000    22.16000000
   C     58.36000000    38.24000000    22.81000000
   C     57.45000000    37.40000000    21.93000000
   O     57.07000000    37.81000000    20.84000000
   C     57.70000000    39.38000000    23.57000000
   C     58.32000000    39.68000000    24.93000000
   C     56.19000000    39.15000000    23.70000000
   C     57.75000000    40.94000000    25.59000000
   H     59.48000000    39.29000000    21.36000000
   H     58.70000000    37.55000000    23.59000000
   H     57.81000000    40.27000000    22.94000000
   H     59.34000000    39.95000000    24.66000000
   H     58.21000000    38.83000000    25.61000000
   H     55.57000000    39.22000000    22.81000000
   H     56.05000000    38.16000000    24.15000000
   H     55.70000000    39.77000000    24.44000000
   H     57.71000000    41.70000000    24.81000000
   H     56.77000000    40.56000000    25.87000000
   H     58.31000000    41.32000000    26.44000000
   N     57.02000000    36.23000000    22.41000000
   C     56.19000000    35.21000000    21.80000000
   C     54.79000000    35.25000000    22.38000000
   O     54.51000000    35.82000000    23.43000000
   C     56.67000000    33.76000000    21.89000000
   C     58.03000000    33.59000000    21.24000000
   O     56.80000000    33.46000000    23.26000000
   H     57.42000000    35.98000000    23.31000000
   H     56.24000000    35.42000000    20.73000000
   H     55.93000000    33.09000000    21.45000000
   H     57.47000000    32.78000000    23.33000000
   H     58.23000000    32.52000000    21.16000000
   H     58.07000000    34.07000000    20.27000000
   H     58.72000000    34.20000000    21.83000000
   N     53.91000000    34.50000000    21.72000000
   C     52.54000000    34.25000000    22.12000000
   C     52.38000000    33.41000000    23.38000000
   O     51.56000000    33.65000000    24.26000000
   C     51.86000000    33.52000000    20.96000000
   C     51.68000000    34.49000000    19.79000000
   O     52.67000000    32.47000000    20.48000000
   H     54.24000000    33.99000000    20.91000000
   H     51.96000000    35.17000000    22.20000000
   H     50.88000000    33.25000000    21.34000000
   H     52.16000000    31.83000000    19.98000000
   H     50.88000000    35.19000000    20.01000000
   H     52.56000000    35.07000000    19.53000000
   H     51.48000000    33.89000000    18.90000000
   N     53.33000000    32.55000000    23.77000000
   C     53.43000000    31.84000000    25.02000000
   C     53.95000000    32.72000000    26.16000000
   O     53.43000000    32.61000000    27.27000000
   C     54.33000000    30.62000000    24.82000000
   C     53.72000000    29.62000000    23.84000000
   C     54.16000000    28.18000000    24.09000000
   C     53.88000000    27.43000000    22.80000000
   N     54.09000000    25.99000000    23.02000000
   H     54.05000000    32.40000000    23.07000000
   H     52.43000000    31.54000000    25.34000000
   H     54.48000000    30.17000000    25.80000000
   H     55.31000000    30.96000000    24.50000000
   H     54.09000000    29.88000000    22.85000000
   H     52.65000000    29.79000000    23.79000000
   H     53.55000000    27.75000000    24.89000000
   H     55.22000000    28.16000000    24.34000000
   H     54.44000000    27.80000000    21.94000000
   H     52.86000000    27.66000000    22.49000000
   H     53.78000000    25.58000000    22.16000000
   H     55.08000000    25.78000000    23.03000000
   H     53.55000000    25.66000000    23.81000000
   N     54.94000000    33.58000000    25.92000000
   C     55.47000000    34.48000000    26.92000000
   C     54.39000000    35.36000000    27.53000000
   O     54.36000000    35.48000000    28.75000000
   C     56.67000000    35.16000000    26.26000000
   C     57.88000000    34.24000000    26.40000000
   C     59.13000000    34.81000000    25.75000000
   O     59.12000000    35.46000000    24.68000000
   O     60.23000000    34.44000000    26.22000000
   H     55.39000000    33.55000000    25.01000000
   H     55.89000000    33.93000000    27.77000000
   H     56.94000000    36.03000000    26.86000000
   H     56.55000000    35.51000000    25.23000000
   H     57.51000000    33.31000000    25.96000000
   H     58.07000000    34.03000000    27.45000000
   N     53.53000000    35.93000000    26.68000000
   C     52.30000000    36.62000000    27.00000000
   H     51.51000000    35.89000000    27.17600000
   H     52.44400000    37.22300000    27.89700000
   H     52.01800000    37.26600000    26.16900000
   H     53.77000000    35.78000000    25.71000000
  Ca     61.80000000    35.33000000    24.25000000
   O     61.43000000    35.14000000    21.74000000
   H     61.66000000    34.38000000    21.21000000
   H     61.64000000    35.89000000    21.17000000
   O     61.14000000    32.84000000    23.57000000
   H     61.46000000    32.26000000    22.87000000
   H     61.57000000    32.50000000    24.36000000

Ca 1.70



