%chk=loop2.cluster45.chk
%nprocshared=48
%mem=10GB
%nosave
#b3lyp/svp scf=(tight,noincore) Test 
#IOP(5/87=12) Density=Current Pop=(MK,readradii) iop(6/33=2) iop(6/42=6)

loop2.cluster45 

   -2  1 
   C     48.12000000    43.23000000     8.62000000
   C     47.16000000    43.97000000     7.70000000
   O     47.02000000    45.19000000     7.80000000
   H     49.00700000    43.84100000     8.78500000
   H     47.63100000    43.03400000     9.57400000
   H     48.41000000    42.28600000     8.15900000
   N     46.28000000    43.36000000     6.91000000
   C     46.12000000    41.95000000     6.60000000
   C     45.63000000    41.06000000     7.73000000
   O     45.00000000    41.51000000     8.69000000
   C     45.18000000    41.75000000     5.42000000
   C     43.90000000    42.57000000     5.37000000
   O     43.20000000    42.49000000     4.34000000
   O     43.54000000    43.19000000     6.40000000
   H     45.55000000    43.95000000     6.54000000
   H     47.07000000    41.62000000     6.19000000
   H     44.97000000    40.68000000     5.34000000
   H     45.68000000    41.80000000     4.45000000
   N     46.07000000    39.80000000     7.69000000
   C     45.67000000    38.66000000     8.49000000
   C     44.25000000    38.28000000     8.10000000
   O     43.98000000    37.62000000     7.10000000
   C     45.87000000    38.78000000    10.00000000
   H     46.49000000    39.53000000     6.82000000
   H     46.26000000    37.80000000     8.17000000
   H     45.68000000    37.85000000    10.54000000
   H     46.88000000    39.06000000    10.28000000
   H     45.25000000    39.58000000    10.40000000
   N     43.25000000    38.82000000     8.80000000
   C     41.88000000    38.75000000     8.34000000
   C     41.74000000    39.71000000     7.16000000
   O     42.16000000    40.87000000     7.25000000
   C     40.85000000    39.19000000     9.37000000
   C     41.19000000    40.42000000    10.20000000
   O     42.32000000    40.96000000    10.16000000
   O     40.30000000    40.73000000    11.01000000
   H     43.42000000    39.54000000     9.48000000
   H     41.59000000    37.75000000     8.03000000
   H     40.81000000    38.44000000    10.16000000
   H     39.91000000    39.37000000     8.83000000
   N     41.22000000    39.22000000     6.04000000
   C     41.21000000    39.85000000     4.73000000
   C     40.32000000    41.08000000     4.53000000
   O     39.75000000    41.31000000     3.47000000
   H     40.93000000    38.25000000     6.07000000
   H     40.89000000    39.07000000     4.05000000
   H     42.24000000    40.03000000     4.44000000
   N     40.01000000    41.85000000     5.58000000
   C     39.10000000    42.98000000     5.60000000
   C     39.84000000    44.31000000     5.54000000
   O     39.17000000    45.31000000     5.75000000
   C     38.19000000    42.73000000     6.80000000
   C     39.07000000    42.42000000     8.00000000
   N     38.58000000    41.55000000     8.90000000
   O     40.22000000    42.81000000     8.12000000
   H     40.56000000    41.68000000     6.41000000
   H     38.37000000    42.90000000     4.81000000
   H     37.52000000    41.89000000     6.60000000
   H     37.41000000    43.48000000     6.87000000
   H     37.70000000    41.14000000     8.65000000
   H     39.08000000    41.26000000     9.73000000
   N     41.14000000    44.38000000     5.25000000
   C     41.95000000    45.57000000     5.35000000
   C     42.13000000    46.08000000     6.77000000
   O     41.87000000    45.29000000     7.68000000
   H     41.66000000    43.55000000     4.97000000
   H     41.52000000    46.24000000     4.61000000
   H     42.92000000    45.31000000     4.91000000
   N     42.49000000    47.36000000     6.90000000
   C     42.77000000    48.35000000     5.88000000
   C     43.76000000    49.46000000     6.18000000
   O     43.90000000    50.31000000     5.30000000
   C     41.41000000    48.95000000     5.57000000
   C     40.81000000    50.01000000     6.50000000
   O     41.38000000    49.57000000     4.31000000
   H     42.35000000    47.67000000     7.85000000
   H     43.19000000    47.82000000     5.02000000
   H     40.65000000    48.17000000     5.50000000
   H     41.52000000    50.50000000     4.49000000
   H     41.52000000    50.83000000     6.66000000
   H     39.90000000    50.39000000     6.05000000
   H     40.41000000    49.48000000     7.37000000
   N     44.29000000    49.62000000     7.40000000
   C     45.14000000    50.69000000     7.87000000
   C     44.48000000    52.05000000     7.98000000
   O     44.66000000    52.92000000     7.13000000
   C     46.52000000    50.64000000     7.20000000
   C     47.13000000    49.24000000     7.25000000
   C     47.41000000    51.66000000     7.90000000
   C     48.57000000    49.19000000     6.77000000
   H     43.95000000    48.95000000     8.07000000
   H     45.24000000    50.40000000     8.91000000
   H     46.42000000    50.93000000     6.16000000
   H     46.56000000    48.73000000     6.48000000
   H     46.87000000    48.69000000     8.15000000
   H     46.93000000    52.63000000     8.06000000
   H     48.00000000    51.23000000     8.72000000
   H     48.26000000    51.91000000     7.27000000
   H     48.70000000    49.40000000     5.71000000
   H     49.23000000    49.91000000     7.25000000
   H     48.94000000    48.17000000     6.93000000
   N     43.61000000    52.34000000     8.95000000
   C     42.80000000    51.48000000     9.79000000
   C     43.52000000    51.13000000    11.08000000
   O     44.17000000    50.09000000    11.22000000
   C     41.36000000    51.95000000     9.98000000
   C     41.16000000    53.30000000    10.64000000
   O     39.98000000    53.67000000    10.81000000
   O     42.11000000    54.10000000    10.84000000
   H     43.29000000    53.29000000     8.87000000
   H     42.76000000    50.53000000     9.26000000
   H     40.70000000    51.18000000    10.39000000
   H     40.97000000    52.11000000     8.97000000
   N     43.57000000    52.01000000    12.08000000
   C     44.00000000    51.74000000    13.44000000
   C     42.78000000    51.44000000    14.31000000
   O     41.70000000    51.90000000    13.95000000
   C     44.83000000    52.89000000    14.00000000
   C     44.07000000    54.14000000    14.39000000
   C     44.01000000    55.24000000    13.53000000
   C     43.42000000    54.27000000    15.62000000
   C     43.44000000    56.46000000    13.89000000
   C     42.72000000    55.44000000    15.94000000
   C     42.69000000    56.54000000    15.07000000
   H     42.94000000    52.79000000    11.96000000
   H     44.70000000    50.90000000    13.47000000
   H     45.62000000    53.10000000    13.28000000
   H     45.28000000    52.54000000    14.93000000
   H     44.55000000    55.16000000    12.60000000
   H     43.60000000    53.50000000    16.36000000
   H     43.45000000    57.34000000    13.26000000
   H     42.24000000    55.51000000    16.91000000
   H     42.21000000    57.46000000    15.35000000
   N     42.92000000    50.67000000    15.39000000
   C     43.95000000    49.66000000    15.55000000
   C     44.09000000    48.67000000    14.40000000
   O     43.24000000    48.63000000    13.52000000
   C     43.49000000    48.90000000    16.79000000
   C     42.62000000    49.86000000    17.60000000
   C     41.96000000    50.64000000    16.47000000
   H     44.91000000    50.14000000    15.72000000
   H     42.87000000    48.05000000    16.52000000
   H     44.29000000    48.45000000    17.36000000
   H     41.90000000    49.32000000    18.22000000
   H     43.44000000    50.43000000    18.04000000
   H     41.09000000    50.08000000    16.12000000
   H     41.66000000    51.59000000    16.92000000
   N     45.22000000    47.95000000    14.36000000
   C     45.72000000    46.96000000    13.43000000
   C     47.11000000    46.44000000    13.78000000
   O     47.36000000    45.27000000    14.09000000
   C     44.69000000    45.85000000    13.28000000
   C     44.15000000    45.05000000    14.47000000
   C     43.19000000    44.00000000    13.93000000
   O     41.96000000    44.11000000    13.77000000
   O     43.71000000    42.88000000    13.70000000
   H     45.76000000    48.05000000    15.21000000
   H     45.71000000    47.37000000    12.42000000
   H     45.19000000    45.26000000    12.51000000
   H     43.82000000    46.21000000    12.73000000
   H     43.64000000    45.77000000    15.10000000
   H     44.96000000    44.59000000    15.03000000
   N     48.18000000    47.22000000    13.70000000
   C     48.47000000    48.59000000    13.32000000
   H     49.44900000    48.63500000    12.84200000
   H     47.71000000    48.94300000    12.62300000
   H     48.47100000    49.22200000    14.20800000
   H     49.03000000    46.70000000    13.84000000
  Ca     42.83000000    43.10000000     8.85000000
   O     44.51000000    45.53000000     9.01000000
   H     45.39000000    45.71000000     8.68000000
   H     44.18000000    46.39000000     9.27000000
   O     44.04000000    43.02000000    11.12000000
   H     43.67000000    43.08000000    12.00000000
   H     44.99000000    43.00000000    11.27000000
   O     41.51000000    44.40000000    10.67000000
   H     41.70000000    44.16000000    11.57000000
   H     40.58000000    44.65000000    10.69000000

Ca 1.70



