%chk=loop4.cluster72.chk
%nprocshared=48
%mem=10GB
%nosave
#b3lyp/svp scf=(tight,noincore) Test 
#IOP(5/87=12) Density=Current Pop=(MK,readradii) iop(6/33=2) iop(6/42=6)

loop4.cluster72 

   -3  1 
   C     46.38000000    53.08000000    67.87000000
   C     46.45000000    54.23000000    68.86000000
   O     47.37000000    54.42000000    69.66000000
   H     45.91800000    53.42500000    66.94500000
   H     47.38700000    52.71900000    67.66000000
   H     45.78500000    52.27100000    68.29300000
   N     45.38000000    55.01000000    68.72000000
   C     44.90000000    56.09000000    69.55000000
   C     45.79000000    57.31000000    69.78000000
   O     46.99000000    57.26000000    70.07000000
   C     44.30000000    55.59000000    70.86000000
   C     45.15000000    54.80000000    71.84000000
   O     44.81000000    53.62000000    72.10000000
   O     46.21000000    55.29000000    72.28000000
   H     44.70000000    54.67000000    68.06000000
   H     44.00000000    56.44000000    69.04000000
   H     43.40000000    54.98000000    70.83000000
   H     43.97000000    56.49000000    71.38000000
   N     45.18000000    58.49000000    69.68000000
   C     45.66000000    59.85000000    69.74000000
   C     46.62000000    60.20000000    70.86000000
   O     47.62000000    60.88000000    70.65000000
   C     45.92000000    60.48000000    68.37000000
   C     44.74000000    60.48000000    67.39000000
   C     47.03000000    59.77000000    67.61000000
   C     44.80000000    61.54000000    66.30000000
   H     44.18000000    58.32000000    69.76000000
   H     44.73000000    60.35000000    70.00000000
   H     46.20000000    61.51000000    68.59000000
   H     43.87000000    60.70000000    68.01000000
   H     44.53000000    59.51000000    66.95000000
   H     46.66000000    58.84000000    67.19000000
   H     47.28000000    60.40000000    66.76000000
   H     47.90000000    59.58000000    68.25000000
   H     43.77000000    61.67000000    65.96000000
   H     45.18000000    62.46000000    66.75000000
   H     45.45000000    61.29000000    65.47000000
   N     46.38000000    59.85000000    72.13000000
   C     47.14000000    60.23000000    73.30000000
   C     48.29000000    59.26000000    73.53000000
   O     48.22000000    58.09000000    73.14000000
   C     46.31000000    60.44000000    74.55000000
   C     45.34000000    59.30000000    74.86000000
   O     44.59000000    58.91000000    73.94000000
   O     45.27000000    58.76000000    75.99000000
   H     45.71000000    59.10000000    72.25000000
   H     47.54000000    61.21000000    73.03000000
   H     45.80000000    61.37000000    74.32000000
   H     46.86000000    60.69000000    75.46000000
   N     49.34000000    59.70000000    74.22000000
   C     49.47000000    61.05000000    74.73000000
   C     50.90000000    61.26000000    75.23000000
   O     51.45000000    60.30000000    75.77000000
   H     50.12000000    59.08000000    74.43000000
   H     48.76000000    61.29000000    75.52000000
   H     49.34000000    61.79000000    73.95000000
   N     51.46000000    62.46000000    75.11000000
   C     51.16000000    63.55000000    74.21000000
   C     52.45000000    64.24000000    73.77000000
   O     53.45000000    64.04000000    74.45000000
   C     50.27000000    64.63000000    74.81000000
   C     50.78000000    64.95000000    76.21000000
   O     50.44000000    64.22000000    77.16000000
   O     51.46000000    65.99000000    76.40000000
   H     52.37000000    62.59000000    75.53000000
   H     50.66000000    63.18000000    73.31000000
   H     49.22000000    64.34000000    74.88000000
   H     50.30000000    65.51000000    74.17000000
   N     52.48000000    64.88000000    72.60000000
   C     51.41000000    65.12000000    71.65000000
   C     51.97000000    65.71000000    70.36000000
   O     51.26000000    66.13000000    69.45000000
   H     53.41000000    65.22000000    72.38000000
   H     50.60000000    65.72000000    72.07000000
   H     51.03000000    64.14000000    71.39000000
   N     53.30000000    65.68000000    70.19000000
   C     54.02000000    66.15000000    69.03000000
   C     54.31000000    65.03000000    68.04000000
   O     54.18000000    65.28000000    66.84000000
   C     55.22000000    67.03000000    69.35000000
   C     56.53000000    66.33000000    69.72000000
   C     57.43000000    67.34000000    70.41000000
   N     57.86000000    68.41000000    69.73000000
   O     57.66000000    67.31000000    71.62000000
   H     53.83000000    65.25000000    70.93000000
   H     53.33000000    66.80000000    68.50000000
   H     55.01000000    67.82000000    70.07000000
   H     55.52000000    67.55000000    68.44000000
   H     57.07000000    66.03000000    68.83000000
   H     56.32000000    65.43000000    70.30000000
   H     57.77000000    68.52000000    68.73000000
   H     58.34000000    69.09000000    70.30000000
   N     54.56000000    63.78000000    68.43000000
   C     54.38000000    62.65000000    67.54000000
   C     55.60000000    61.74000000    67.54000000
   O     56.21000000    61.46000000    68.57000000
   C     53.10000000    61.91000000    67.93000000
   C     52.95000000    60.63000000    67.11000000
   C     51.86000000    62.74000000    67.63000000
   H     54.64000000    63.58000000    69.42000000
   H     54.38000000    63.02000000    66.51000000
   H     53.16000000    61.61000000    68.97000000
   H     53.08000000    60.98000000    66.09000000
   H     53.69000000    59.94000000    67.50000000
   H     51.95000000    60.21000000    67.20000000
   H     51.91000000    63.52000000    68.39000000
   H     51.96000000    63.32000000    66.71000000
   H     50.96000000    62.13000000    67.63000000
   N     56.02000000    61.25000000    66.37000000
   C     57.13000000    60.35000000    66.13000000
   C     56.89000000    58.94000000    66.65000000
   O     55.77000000    58.43000000    66.66000000
   C     58.39000000    61.12000000    66.52000000
   C     58.64000000    62.43000000    65.79000000
   N     59.53000000    62.36000000    64.80000000
   O     58.23000000    63.53000000    66.15000000
   H     55.57000000    61.70000000    65.58000000
   H     57.24000000    60.16000000    65.06000000
   H     59.25000000    60.46000000    66.36000000
   H     58.39000000    61.37000000    67.58000000
   H     59.96000000    61.50000000    64.49000000
   H     59.56000000    63.21000000    64.25000000
   N     57.98000000    58.32000000    67.12000000
   C     58.01000000    56.89000000    67.36000000
   C     57.39000000    56.34000000    68.63000000
   O     57.15000000    57.08000000    69.58000000
   C     59.48000000    56.48000000    67.30000000
   C     60.30000000    57.02000000    66.14000000
   C     61.39000000    57.87000000    66.36000000
   C     60.22000000    56.30000000    64.94000000
   C     62.31000000    58.18000000    65.36000000
   C     61.11000000    56.64000000    63.91000000
   C     62.09000000    57.63000000    64.08000000
   O     62.97000000    57.91000000    63.08000000
   H     58.84000000    58.83000000    67.27000000
   H     57.56000000    56.37000000    66.51000000
   H     59.61000000    55.40000000    67.30000000
   H     59.85000000    56.72000000    68.29000000
   H     61.54000000    58.33000000    67.33000000
   H     59.45000000    55.57000000    64.78000000
   H     63.11000000    58.89000000    65.47000000
   H     60.95000000    56.10000000    62.99000000
   H     62.66000000    57.52000000    62.25000000
   N     57.05000000    55.05000000    68.54000000
   C     56.11000000    54.24000000    69.29000000
   C     54.63000000    54.48000000    69.04000000
   O     53.77000000    53.63000000    69.26000000
   C     56.43000000    54.19000000    70.78000000
   C     57.66000000    53.37000000    71.17000000
   C     57.90000000    53.65000000    72.65000000
   O     57.20000000    53.11000000    73.53000000
   O     58.82000000    54.40000000    73.02000000
   H     57.39000000    54.69000000    67.67000000
   H     56.34000000    53.22000000    68.97000000
   H     55.62000000    53.65000000    71.28000000
   H     56.52000000    55.15000000    71.28000000
   H     58.46000000    53.73000000    70.53000000
   H     57.41000000    52.34000000    70.91000000
   N     54.27000000    55.54000000    68.32000000
   C     52.95000000    55.72000000    67.75000000
   C     53.06000000    55.52000000    66.25000000
   O     52.26000000    54.76000000    65.72000000
   C     52.48000000    57.14000000    68.09000000
   C     52.36000000    57.44000000    69.58000000
   C     51.09000000    56.86000000    70.18000000
   O     50.19000000    57.66000000    70.54000000
   O     50.78000000    55.65000000    70.19000000
   H     54.90000000    56.32000000    68.20000000
   H     52.25000000    54.96000000    68.08000000
   H     51.55000000    57.30000000    67.54000000
   H     53.26000000    57.79000000    67.70000000
   H     52.51000000    58.50000000    69.80000000
   H     53.21000000    57.02000000    70.10000000
   N     54.10000000    56.02000000    65.58000000
   C     54.41000000    55.80000000    64.18000000
   H     55.44900000    55.48500000    64.08400000
   H     53.75700000    55.02400000    63.78000000
   H     54.25800000    56.72500000    63.62400000
   H     54.69000000    56.65000000    66.10000000
  Ca     48.51000000    55.93000000    71.56000000
   O     48.85000000    53.40000000    72.20000000
   H     49.53000000    53.06000000    72.79000000
   H     48.28000000    52.64000000    72.05000000
   O     50.50000000    56.03000000    73.71000000
   H     50.68000000    56.94000000    73.95000000
   H     51.18000000    55.53000000    74.17000000

Ca 1.70



