%chk=loop2.cluster148.chk
%nprocshared=48
%mem=10GB
%nosave
#b3lyp/svp scf=(tight,noincore) Test 
#IOP(5/87=12) Density=Current Pop=(MK,readradii) iop(6/33=2) iop(6/42=6)

loop2.cluster148 

   -2  1 
   C     86.16000000    51.47000000    60.46000000
   C     85.78000000    52.13000000    59.14000000
   O     84.77000000    51.75000000    58.56000000
   H     87.01100000    51.99400000    60.89600000
   H     85.31500000    51.51600000    61.14700000
   H     86.42800000    50.42900000    60.28200000
   N     86.48000000    53.16000000    58.66000000
   C     86.33000000    53.65000000    57.30000000
   C     84.90000000    54.08000000    57.04000000
   O     84.31000000    54.92000000    57.71000000
   C     87.28000000    54.83000000    57.11000000
   C     87.48000000    55.38000000    55.70000000
   O     87.95000000    56.54000000    55.67000000
   O     87.41000000    54.73000000    54.64000000
   H     87.27000000    53.50000000    59.19000000
   H     86.70000000    52.84000000    56.67000000
   H     88.23000000    54.43000000    57.47000000
   H     86.91000000    55.65000000    57.72000000
   N     84.41000000    53.65000000    55.87000000
   C     83.01000000    53.83000000    55.55000000
   C     82.18000000    52.69000000    56.13000000
   O     82.70000000    51.58000000    56.15000000
   C     82.99000000    54.00000000    54.04000000
   H     84.86000000    52.89000000    55.39000000
   H     82.69000000    54.78000000    55.99000000
   H     82.01000000    54.25000000    53.64000000
   H     83.67000000    54.73000000    53.60000000
   H     83.22000000    53.06000000    53.54000000
   N     80.91000000    52.88000000    56.51000000
   C     80.14000000    54.11000000    56.45000000
   C     80.35000000    54.96000000    57.70000000
   O     80.75000000    54.47000000    58.75000000
   C     78.66000000    53.76000000    56.35000000
   C     78.13000000    52.64000000    57.23000000
   O     77.10000000    52.02000000    56.86000000
   O     78.61000000    52.45000000    58.36000000
   H     80.41000000    52.13000000    56.97000000
   H     80.48000000    54.69000000    55.59000000
   H     78.53000000    53.43000000    55.32000000
   H     77.97000000    54.58000000    56.55000000
   N     80.23000000    56.28000000    57.58000000
   C     80.48000000    57.20000000    58.67000000
   C     81.97000000    57.38000000    58.92000000
   O     82.78000000    57.38000000    58.00000000
   H     79.94000000    56.60000000    56.66000000
   H     80.05000000    56.78000000    59.58000000
   H     79.94000000    58.13000000    58.49000000
   N     82.51000000    57.66000000    60.11000000
   C     81.85000000    58.11000000    61.32000000
   C     82.56000000    57.50000000    62.53000000
   O     82.32000000    57.91000000    63.66000000
   C     81.94000000    59.63000000    61.28000000
   C     81.21000000    60.47000000    60.25000000
   N     81.90000000    61.27000000    59.44000000
   O     79.98000000    60.41000000    60.26000000
   H     83.52000000    57.59000000    60.13000000
   H     80.80000000    57.82000000    61.28000000
   H     83.01000000    59.84000000    61.24000000
   H     81.60000000    60.08000000    62.22000000
   H     82.91000000    61.25000000    59.51000000
   H     81.49000000    61.87000000    58.74000000
   N     83.46000000    56.52000000    62.42000000
   C     84.12000000    55.66000000    63.38000000
   C     83.18000000    54.79000000    64.20000000
   O     83.65000000    54.17000000    65.15000000
   H     83.50000000    56.24000000    61.45000000
   H     84.75000000    56.14000000    64.12000000
   H     84.76000000    55.02000000    62.77000000
   N     81.88000000    54.80000000    63.87000000
   C     80.87000000    54.10000000    64.64000000
   C     80.42000000    52.77000000    64.04000000
   O     80.49000000    52.55000000    62.84000000
   C     79.61000000    54.96000000    64.67000000
   C     78.68000000    54.57000000    65.81000000
   O     79.97000000    56.32000000    64.81000000
   H     81.52000000    55.49000000    63.24000000
   H     81.22000000    53.96000000    65.66000000
   H     79.07000000    54.88000000    63.72000000
   H     80.67000000    56.43000000    65.45000000
   H     79.36000000    54.38000000    66.64000000
   H     77.99000000    55.40000000    65.87000000
   H     78.15000000    53.66000000    65.53000000
   N     79.95000000    51.86000000    64.90000000
   C     79.82000000    50.45000000    64.60000000
   C     78.38000000    50.04000000    64.87000000
   O     77.67000000    50.79000000    65.56000000
   C     80.87000000    49.69000000    65.39000000
   C     82.24000000    49.68000000    64.72000000
   C     81.01000000    50.07000000    66.87000000
   C     82.27000000    49.02000000    63.35000000
   H     79.79000000    52.13000000    65.86000000
   H     79.98000000    50.16000000    63.56000000
   H     80.56000000    48.65000000    65.33000000
   H     82.91000000    49.13000000    65.38000000
   H     82.60000000    50.69000000    64.52000000
   H     80.04000000    49.89000000    67.33000000
   H     81.74000000    49.35000000    67.21000000
   H     81.32000000    51.10000000    67.05000000
   H     81.81000000    48.04000000    63.42000000
   H     81.82000000    49.62000000    62.55000000
   H     83.32000000    48.84000000    63.08000000
   N     77.94000000    48.93000000    64.28000000
   C     76.61000000    48.40000000    64.49000000
   C     76.59000000    46.93000000    64.11000000
   O     77.38000000    46.46000000    63.29000000
   C     75.64000000    49.16000000    63.57000000
   C     76.08000000    49.49000000    62.15000000
   O     76.98000000    50.34000000    61.99000000
   O     75.52000000    48.92000000    61.20000000
   H     78.56000000    48.42000000    63.67000000
   H     76.36000000    48.44000000    65.55000000
   H     75.35000000    50.07000000    64.10000000
   H     74.72000000    48.59000000    63.50000000
   N     75.70000000    46.12000000    64.69000000
   C     75.64000000    44.68000000    64.48000000
   C     77.04000000    44.09000000    64.57000000
   O     77.81000000    44.54000000    65.42000000
   C     74.75000000    44.05000000    65.54000000
   C     74.64000000    42.54000000    65.55000000
   C     75.36000000    41.77000000    66.47000000
   C     73.80000000    41.96000000    64.60000000
   C     75.30000000    40.38000000    66.32000000
   C     73.71000000    40.57000000    64.49000000
   C     74.52000000    39.79000000    65.32000000
   H     74.95000000    46.62000000    65.13000000
   H     75.15000000    44.55000000    63.52000000
   H     73.75000000    44.45000000    65.38000000
   H     74.96000000    44.51000000    66.51000000
   H     75.94000000    42.31000000    67.21000000
   H     73.30000000    42.53000000    63.83000000
   H     75.80000000    39.69000000    66.99000000
   H     73.09000000    40.07000000    63.76000000
   H     74.70000000    38.74000000    65.13000000
   N     77.35000000    43.10000000    63.73000000
   C     78.52000000    42.26000000    63.82000000
   C     79.80000000    42.91000000    63.32000000
   O     80.86000000    42.30000000    63.35000000
   C     78.10000000    41.00000000    63.06000000
   C     77.41000000    41.63000000    61.85000000
   C     76.67000000    42.80000000    62.48000000
   H     78.69000000    41.93000000    64.85000000
   H     78.94000000    40.38000000    62.73000000
   H     77.37000000    40.44000000    63.64000000
   H     78.17000000    41.98000000    61.16000000
   H     76.71000000    40.93000000    61.39000000
   H     76.82000000    43.67000000    61.83000000
   H     75.60000000    42.63000000    62.59000000
   N     79.73000000    44.19000000    62.93000000
   C     80.86000000    44.88000000    62.33000000
   C     81.93000000    45.17000000    63.38000000
   O     83.05000000    45.57000000    63.07000000
   C     80.41000000    46.16000000    61.63000000
   C     79.54000000    45.87000000    60.41000000
   C     79.20000000    47.24000000    59.83000000
   O     78.08000000    47.77000000    59.93000000
   O     80.09000000    47.81000000    59.16000000
   H     78.79000000    44.55000000    62.95000000
   H     81.34000000    44.20000000    61.64000000
   H     81.24000000    46.81000000    61.35000000
   H     79.92000000    46.79000000    62.37000000
   H     78.64000000    45.39000000    60.81000000
   H     80.14000000    45.28000000    59.72000000
   N     81.67000000    44.95000000    64.67000000
   C     82.50000000    45.14000000    65.84000000
   H     83.38900000    45.70800000    65.56600000
   H     81.94000000    45.68700000    66.59900000
   H     82.79800000    44.16900000    66.23700000
   H     80.74000000    44.64000000    64.89000000
  Ca     77.35000000    50.34000000    59.40000000
   O     79.57000000    50.81000000    60.74000000
   H     80.30000000    51.22000000    60.28000000
   H     79.63000000    51.12000000    61.64000000
   O     78.88000000    49.33000000    57.49000000
   H     79.47000000    49.87000000    56.96000000
   H     79.47000000    48.81000000    58.04000000
   O     74.92000000    49.93000000    58.39000000
   H     74.76000000    48.99000000    58.34000000
   H     74.11000000    50.33000000    58.06000000

Ca 1.70



