%chk=loop2.cluster107.chk
%nprocshared=48
%mem=10GB
%nosave
#b3lyp/svp scf=(tight,noincore) Test 
#IOP(5/87=12) Density=Current Pop=(MK,readradii) iop(6/33=2) iop(6/42=6)

loop2.cluster107 

   -2  1 
   C     61.96000000    46.29000000    11.02000000
   C     63.18000000    45.73000000    10.31000000
   O     63.22000000    44.50000000    10.27000000
   H     61.11400000    45.61900000    10.87100000
   H     62.16900000    46.38000000    12.08600000
   H     61.72000000    47.27200000    10.61200000
   N     64.22000000    46.48000000     9.92000000
   C     65.48000000    46.02000000     9.38000000
   C     65.38000000    45.47000000     7.96000000
   O     66.30000000    45.45000000     7.15000000
   C     66.59000000    47.03000000     9.66000000
   C     66.40000000    48.44000000     9.13000000
   O     67.32000000    49.27000000     9.26000000
   O     65.40000000    48.75000000     8.44000000
   H     64.12000000    47.46000000    10.11000000
   H     65.77000000    45.14000000     9.96000000
   H     67.47000000    46.56000000     9.22000000
   H     66.68000000    47.21000000    10.73000000
   N     64.23000000    44.89000000     7.61000000
   C     63.78000000    44.61000000     6.27000000
   C     62.28000000    44.41000000     6.14000000
   O     61.62000000    43.89000000     7.04000000
   C     64.48000000    43.31000000     5.87000000
   H     63.53000000    44.65000000     8.30000000
   H     64.09000000    45.44000000     5.63000000
   H     64.36000000    42.43000000     6.49000000
   H     64.14000000    43.00000000     4.88000000
   H     65.56000000    43.42000000     5.79000000
   N     61.70000000    44.69000000     4.97000000
   C     62.17000000    45.28000000     3.73000000
   C     62.40000000    46.78000000     3.90000000
   O     61.99000000    47.34000000     4.91000000
   C     61.19000000    45.03000000     2.59000000
   C     59.77000000    45.55000000     2.81000000
   O     59.45000000    46.53000000     2.11000000
   O     59.11000000    45.15000000     3.80000000
   H     60.69000000    44.62000000     5.03000000
   H     63.11000000    44.88000000     3.35000000
   H     61.17000000    43.95000000     2.47000000
   H     61.60000000    45.46000000     1.68000000
   N     63.04000000    47.53000000     3.01000000
   C     63.49000000    48.90000000     3.19000000
   C     62.93000000    49.86000000     2.14000000
   O     63.78000000    50.39000000     1.44000000
   H     63.31000000    47.14000000     2.12000000
   H     64.57000000    48.93000000     3.28000000
   H     63.13000000    49.25000000     4.15000000
   N     61.65000000    50.22000000     2.03000000
   C     60.50000000    49.66000000     2.71000000
   C     60.30000000    50.26000000     4.10000000
   O     60.15000000    51.47000000     4.21000000
   C     59.27000000    50.01000000     1.87000000
   C     59.28000000    49.71000000     0.38000000
   N     59.38000000    48.45000000    -0.07000000
   O     59.11000000    50.62000000    -0.42000000
   H     61.37000000    50.71000000     1.20000000
   H     60.55000000    48.59000000     2.91000000
   H     58.96000000    51.05000000     1.95000000
   H     58.42000000    49.43000000     2.23000000
   H     59.26000000    47.70000000     0.60000000
   H     59.40000000    48.31000000    -1.07000000
   N     60.21000000    49.46000000     5.16000000
   C     60.44000000    49.94000000     6.51000000
   C     59.15000000    50.08000000     7.30000000
   O     59.16000000    50.73000000     8.35000000
   H     60.26000000    48.47000000     5.01000000
   H     60.82000000    50.96000000     6.48000000
   H     61.11000000    49.26000000     7.04000000
   N     58.06000000    49.45000000     6.86000000
   C     56.71000000    49.80000000     7.24000000
   C     55.88000000    48.55000000     7.49000000
   O     56.15000000    47.48000000     6.95000000
   C     56.04000000    50.76000000     6.26000000
   C     56.85000000    51.98000000     5.85000000
   O     55.74000000    50.06000000     5.07000000
   H     58.11000000    48.87000000     6.03000000
   H     56.74000000    50.31000000     8.21000000
   H     55.13000000    51.10000000     6.74000000
   H     55.09000000    49.38000000     5.29000000
   H     57.60000000    51.80000000     5.08000000
   H     56.18000000    52.77000000     5.52000000
   H     57.45000000    52.29000000     6.71000000
   N     54.83000000    48.68000000     8.31000000
   C     54.13000000    47.63000000     9.02000000
   C     52.88000000    47.25000000     8.24000000
   O     51.79000000    47.80000000     8.37000000
   C     53.85000000    48.02000000    10.47000000
   C     54.94000000    47.65000000    11.46000000
   C     53.44000000    49.48000000    10.70000000
   C     56.32000000    48.18000000    11.10000000
   H     54.53000000    49.61000000     8.56000000
   H     54.69000000    46.70000000     9.04000000
   H     53.04000000    47.36000000    10.78000000
   H     54.98000000    46.56000000    11.55000000
   H     54.59000000    48.11000000    12.39000000
   H     52.98000000    49.57000000    11.69000000
   H     54.33000000    50.11000000    10.61000000
   H     52.62000000    49.74000000    10.04000000
   H     56.65000000    47.65000000    10.20000000
   H     56.34000000    49.24000000    10.86000000
   H     56.91000000    48.07000000    12.01000000
   N     53.03000000    46.18000000     7.46000000
   C     51.94000000    45.50000000     6.78000000
   C     51.15000000    44.70000000     7.81000000
   O     51.69000000    44.26000000     8.83000000
   C     52.34000000    44.65000000     5.58000000
   C     53.51000000    43.77000000     5.99000000
   O     54.64000000    44.27000000     6.11000000
   O     53.31000000    42.53000000     6.04000000
   H     53.94000000    45.74000000     7.50000000
   H     51.37000000    46.31000000     6.32000000
   H     52.70000000    45.31000000     4.79000000
   H     51.43000000    44.11000000     5.35000000
   N     49.90000000    44.34000000     7.52000000
   C     49.03000000    43.52000000     8.34000000
   C     49.72000000    42.43000000     9.15000000
   O     49.80000000    42.45000000    10.37000000
   C     48.09000000    44.44000000     9.11000000
   C     47.07000000    43.81000000    10.02000000
   C     46.95000000    44.28000000    11.34000000
   C     46.27000000    42.76000000     9.55000000
   C     46.02000000    43.67000000    12.18000000
   C     45.31000000    42.24000000    10.42000000
   C     45.14000000    42.67000000    11.74000000
   H     49.49000000    44.60000000     6.63000000
   H     48.43000000    42.97000000     7.61000000
   H     47.57000000    45.13000000     8.44000000
   H     48.75000000    45.04000000     9.73000000
   H     47.52000000    45.10000000    11.74000000
   H     46.38000000    42.33000000     8.56000000
   H     45.95000000    43.97000000    13.22000000
   H     44.69000000    41.43000000    10.06000000
   H     44.38000000    42.30000000    12.41000000
   N     50.37000000    41.46000000     8.50000000
   C     51.07000000    40.36000000     9.14000000
   C     52.28000000    40.77000000     9.97000000
   O     52.70000000    40.16000000    10.95000000
   C     51.51000000    39.50000000     7.96000000
   C     50.45000000    39.74000000     6.89000000
   C     50.27000000    41.24000000     7.07000000
   H     50.34000000    39.83000000     9.75000000
   H     52.44000000    39.88000000     7.53000000
   H     51.53000000    38.45000000     8.24000000
   H     50.77000000    39.53000000     5.87000000
   H     49.56000000    39.17000000     7.19000000
   H     51.01000000    41.84000000     6.54000000
   H     49.33000000    41.53000000     6.60000000
   N     52.88000000    41.91000000     9.61000000
   C     53.98000000    42.44000000    10.39000000
   C     53.60000000    43.34000000    11.54000000
   O     54.14000000    43.31000000    12.64000000
   C     54.83000000    43.09000000     9.30000000
   C     56.10000000    43.76000000     9.83000000
   C     57.26000000    43.79000000     8.85000000
   O     58.37000000    43.27000000     9.09000000
   O     57.09000000    44.50000000     7.84000000
   H     52.51000000    42.58000000     8.95000000
   H     54.59000000    41.60000000    10.73000000
   H     54.40000000    43.87000000     8.67000000
   H     55.24000000    42.37000000     8.59000000
   H     56.33000000    43.21000000    10.75000000
   H     55.95000000    44.78000000    10.20000000
   N     52.45000000    44.03000000    11.49000000
   C     51.75000000    44.63000000    12.60000000
   H     50.75200000    44.19800000    12.67600000
   H     52.29900000    44.43900000    13.52200000
   H     51.66900000    45.70500000    12.44100000
   H     52.04000000    44.07000000    10.57000000
  Ca     56.89000000    45.30000000     5.35000000
   O     57.77000000    47.61000000     3.98000000
   H     58.20000000    47.11000000     3.29000000
   H     57.04000000    48.05000000     3.53000000
   O     59.33000000    44.85000000     6.62000000
   H     58.76000000    44.43000000     7.27000000
   H     60.22000000    44.59000000     6.89000000
   O     58.03000000    42.72000000     5.28000000
   H     58.40000000    42.58000000     4.41000000
   H     58.61000000    42.24000000     5.87000000
   O     55.07000000    46.67000000     4.07000000
   H     54.56000000    47.44000000     4.28000000
   H     55.12000000    46.67000000     3.11000000
   O     56.39000000    44.30000000     2.98000000
   H     55.53000000    44.03000000     2.65000000
   H     56.86000000    44.61000000     2.20000000

Ca 1.70



