%chk=loop4.cluster113.chk
%nprocshared=48
%mem=10GB
%nosave
#b3lyp/svp scf=(tight,noincore) Test 
#IOP(5/87=12) Density=Current Pop=(MK,readradii) iop(6/33=2) iop(6/42=6)

loop4.cluster113 

   -3  1 
   C    105.99000000    26.10000000    59.60000000
   C    107.40000000    26.65000000    59.45000000
   O    107.61000000    27.24000000    58.39000000
   H    105.31400000    26.65300000    58.94800000
   H    105.97900000    25.04600000    59.32300000
   H    105.66600000    26.20800000    60.63500000
   N    108.34000000    26.37000000    60.35000000
   C    109.70000000    26.87000000    60.39000000
   C    109.68000000    28.36000000    60.71000000
   O    109.96000000    29.25000000    59.92000000
   C    110.53000000    26.53000000    59.16000000
   C    110.49000000    25.03000000    58.91000000
   O    109.92000000    24.59000000    57.90000000
   O    111.14000000    24.25000000    59.65000000
   H    108.03000000    25.87000000    61.17000000
   H    110.23000000    26.46000000    61.25000000
   H    111.58000000    26.82000000    59.23000000
   H    109.98000000    26.99000000    58.33000000
   N    109.23000000    28.66000000    61.93000000
   C    109.30000000    29.89000000    62.68000000
   C    109.82000000    29.56000000    64.07000000
   O    109.25000000    28.75000000    64.81000000
   C    107.89000000    30.48000000    62.72000000
   C    107.36000000    30.75000000    61.31000000
   C    107.81000000    31.76000000    63.54000000
   C    106.03000000    31.48000000    61.13000000
   H    109.07000000    27.85000000    62.52000000
   H    109.92000000    30.59000000    62.12000000
   H    107.21000000    29.87000000    63.31000000
   H    107.13000000    29.78000000    60.87000000
   H    108.19000000    31.17000000    60.75000000
   H    106.81000000    31.87000000    63.95000000
   H    108.41000000    31.74000000    64.45000000
   H    108.15000000    32.59000000    62.92000000
   H    105.34000000    30.96000000    61.80000000
   H    106.19000000    32.52000000    61.40000000
   H    105.61000000    31.44000000    60.12000000
   N    111.00000000    30.03000000    64.48000000
   C    111.88000000    31.02000000    63.90000000
   C    112.47000000    30.56000000    62.58000000
   O    112.78000000    31.40000000    61.74000000
   C    113.05000000    31.29000000    64.85000000
   C    112.56000000    31.58000000    66.26000000
   O    111.95000000    32.64000000    66.51000000
   O    112.95000000    30.87000000    67.21000000
   H    111.30000000    29.69000000    65.39000000
   H    111.33000000    31.96000000    63.82000000
   H    113.55000000    32.19000000    64.50000000
   H    113.81000000    30.51000000    64.86000000
   N    112.64000000    29.26000000    62.35000000
   C    113.04000000    28.62000000    61.11000000
   C    114.53000000    28.70000000    60.85000000
   O    115.41000000    28.74000000    61.71000000
   H    112.32000000    28.66000000    63.10000000
   H    112.53000000    29.11000000    60.28000000
   H    112.69000000    27.58000000    61.10000000
   N    114.86000000    28.83000000    59.56000000
   C    116.17000000    29.24000000    59.08000000
   C    115.92000000    30.42000000    58.15000000
   O    116.83000000    30.91000000    57.49000000
   C    116.77000000    28.05000000    58.33000000
   C    115.86000000    27.24000000    57.41000000
   O    116.41000000    26.30000000    56.80000000
   O    114.65000000    27.42000000    57.19000000
   H    114.12000000    28.60000000    58.91000000
   H    116.83000000    29.67000000    59.84000000
   H    117.11000000    27.30000000    59.04000000
   H    117.66000000    28.32000000    57.77000000
   N    114.73000000    31.03000000    58.20000000
   C    114.37000000    32.13000000    57.34000000
   C    113.95000000    31.80000000    55.91000000
   O    113.70000000    32.70000000    55.11000000
   H    114.04000000    30.64000000    58.83000000
   H    115.14000000    32.90000000    57.41000000
   H    113.56000000    32.67000000    57.83000000
   N    113.69000000    30.55000000    55.53000000
   C    113.68000000    29.97000000    54.20000000
   C    112.85000000    30.73000000    53.18000000
   O    113.35000000    31.39000000    52.26000000
   C    115.10000000    29.78000000    53.66000000
   C    115.95000000    28.82000000    54.48000000
   C    117.27000000    28.38000000    53.86000000
   N    117.99000000    27.48000000    54.54000000
   O    117.77000000    28.97000000    52.91000000
   H    113.64000000    29.89000000    56.29000000
   H    113.19000000    29.00000000    54.23000000
   H    115.61000000    30.73000000    53.56000000
   H    115.12000000    29.47000000    52.61000000
   H    115.43000000    27.86000000    54.55000000
   H    116.22000000    29.21000000    55.46000000
   H    117.71000000    27.03000000    55.40000000
   H    118.83000000    27.27000000    54.01000000
   N    111.53000000    30.56000000    53.21000000
   C    110.62000000    30.92000000    52.14000000
   C    110.56000000    29.75000000    51.17000000
   O    110.78000000    28.61000000    51.58000000
   C    109.24000000    31.22000000    52.73000000
   C    108.70000000    30.08000000    53.59000000
   C    109.17000000    32.50000000    53.55000000
   H    111.18000000    30.08000000    54.03000000
   H    111.02000000    31.78000000    51.61000000
   H    108.61000000    31.28000000    51.84000000
   H    107.65000000    30.21000000    53.85000000
   H    108.80000000    29.14000000    53.05000000
   H    109.23000000    29.95000000    54.54000000
   H    108.29000000    32.53000000    54.19000000
   H    110.01000000    32.56000000    54.25000000
   H    109.22000000    33.41000000    52.96000000
   N    110.20000000    30.07000000    49.93000000
   C    109.99000000    29.11000000    48.86000000
   C    108.72000000    28.36000000    49.25000000
   O    107.72000000    28.99000000    49.56000000
   C    110.00000000    29.78000000    47.49000000
   C    110.18000000    28.84000000    46.31000000
   N    111.06000000    27.84000000    46.40000000
   O    109.60000000    28.95000000    45.23000000
   H    109.99000000    31.04000000    49.71000000
   H    110.81000000    28.40000000    48.81000000
   H    110.77000000    30.54000000    47.46000000
   H    109.01000000    30.25000000    47.43000000
   H    111.64000000    27.76000000    47.23000000
   H    111.20000000    27.30000000    45.56000000
   N    108.62000000    27.04000000    49.07000000
   C    107.47000000    26.26000000    49.49000000
   C    107.81000000    24.79000000    49.70000000
   O    108.77000000    24.36000000    49.08000000
   C    106.30000000    26.38000000    48.52000000
   C    106.51000000    25.71000000    47.18000000
   C    106.18000000    24.35000000    47.10000000
   C    107.33000000    26.28000000    46.20000000
   C    106.44000000    23.62000000    45.94000000
   C    107.66000000    25.57000000    45.04000000
   C    107.22000000    24.23000000    44.93000000
   O    107.53000000    23.47000000    43.85000000
   H    109.49000000    26.59000000    48.82000000
   H    107.11000000    26.76000000    50.39000000
   H    105.89000000    27.37000000    48.30000000
   H    105.50000000    25.87000000    49.05000000
   H    105.66000000    23.81000000    47.88000000
   H    107.61000000    27.32000000    46.32000000
   H    106.24000000    22.56000000    45.88000000
   H    108.43000000    25.93000000    44.38000000
   H    108.19000000    23.86000000    43.27000000
   N    106.98000000    24.04000000    50.43000000
   C    107.08000000    22.59000000    50.49000000
   C    105.99000000    21.90000000    49.68000000
   O    106.33000000    21.10000000    48.81000000
   C    107.18000000    22.10000000    51.93000000
   C    108.57000000    22.36000000    52.49000000
   C    108.71000000    22.25000000    54.00000000
   O    109.21000000    23.21000000    54.61000000
   O    108.23000000    21.25000000    54.58000000
   H    106.36000000    24.51000000    51.07000000
   H    107.99000000    22.25000000    50.00000000
   H    106.87000000    21.05000000    51.94000000
   H    106.50000000    22.61000000    52.61000000
   H    108.81000000    23.40000000    52.24000000
   H    109.31000000    21.77000000    51.94000000
   N    104.70000000    21.88000000    50.00000000
   C    104.01000000    22.26000000    51.21000000
   C    102.80000000    23.17000000    51.03000000
   O    102.19000000    23.09000000    49.97000000
   C    103.74000000    21.05000000    52.09000000
   C    102.83000000    19.95000000    51.56000000
   C    103.42000000    19.11000000    50.43000000
   O    104.03000000    18.04000000    50.67000000
   O    103.13000000    19.44000000    49.27000000
   H    104.12000000    21.37000000    49.35000000
   H    104.72000000    22.93000000    51.71000000
   H    103.19000000    21.42000000    52.95000000
   H    104.69000000    20.62000000    52.42000000
   H    101.91000000    20.38000000    51.17000000
   H    102.45000000    19.28000000    52.33000000
   N    102.41000000    23.93000000    52.06000000
   C    101.04000000    24.38000000    52.24000000
   H    100.39000000    23.51600000    52.38000000
   H    100.98100000    25.02500000    53.11700000
   H    100.72000000    24.93500000    51.35800000
   H    103.06000000    24.20000000    52.78000000
  Ca    108.36700000    22.76000000    57.07000000
   O    106.18700000    23.39000000    55.65000000
   H    105.91700000    23.90000000    54.89000000
   H    105.43700000    22.82000000    55.83000000
   O    110.89700000    21.84000000    56.90000000
   H    111.17700000    21.07000000    57.40000000
   H    111.29700000    21.72000000    56.04000000
   O    109.47700000    21.98000000    59.32000000
   H    110.07700000    22.67000000    59.60000000
   H    109.52700000    21.32000000    60.02000000
   O    108.44700000    25.68000000    56.24000000
   H    109.23700000    25.38000000    56.69000000
   H    108.28700000    26.56000000    56.59000000
   O    108.71700000    19.69000000    57.29000000
   H    108.64700000    18.82000000    56.89000000
   H    107.84700000    19.86000000    57.65000000

Ca 1.70



