%chk=loop3.cluster203.chk
%nprocshared=48
%mem=10GB
%nosave
#b3lyp/svp scf=(tight,noincore) Test 
#IOP(5/87=12) Density=Current Pop=(MK,readradii) iop(6/33=2) iop(6/42=6)

loop3.cluster203 

   0  1 
   C     38.87000000     3.74000000    11.00000000
   C     37.57000000     4.42000000    10.58000000
   O     36.53000000     3.76000000    10.68000000
   H     39.63000000     4.49700000    11.19200000
   H     38.70000000     3.15900000    11.90600000
   H     39.20900000     3.07900000    10.20200000
   N     37.55000000     5.70000000    10.20000000
   C     36.48000000     6.17000000     9.34000000
   C     35.26000000     6.66000000    10.10000000
   O     35.30000000     6.81000000    11.32000000
   C     37.04000000     7.18000000     8.33000000
   C     38.12000000     6.73000000     7.36000000
   O     38.29000000     5.51000000     7.17000000
   O     38.85000000     7.56000000     6.78000000
   H     38.44000000     6.17000000    10.10000000
   H     36.10000000     5.31000000     8.80000000
   H     37.36000000     8.10000000     8.82000000
   H     36.15000000     7.38000000     7.74000000
   N     34.18000000     6.93000000     9.36000000
   C     32.83000000     7.04000000     9.88000000
   C     32.51000000     8.22000000    10.79000000
   O     31.34000000     8.44000000    11.11000000
   C     32.24000000     5.73000000    10.42000000
   C     32.36000000     4.53000000     9.49000000
   C     31.65000000     3.31000000    10.06000000
   C     30.12000000     3.33000000    10.05000000
   N     29.56000000     2.31000000    10.96000000
   H     34.32000000     6.91000000     8.36000000
   H     32.23000000     7.26000000     9.00000000
   H     31.18000000     5.87000000    10.62000000
   H     32.72000000     5.48000000    11.37000000
   H     33.41000000     4.30000000     9.38000000
   H     31.92000000     4.81000000     8.53000000
   H     31.87000000     3.17000000    11.12000000
   H     31.92000000     2.44000000     9.46000000
   H     29.87000000     3.06000000     9.02000000
   H     29.72000000     4.31000000    10.31000000
   H     29.94000000     2.52000000    11.87000000
   H     28.56000000     2.36000000    10.81000000
   H     29.77000000     1.37000000    10.67000000
   N     33.50000000     9.00000000    11.23000000
   C     33.35000000    10.19000000    12.03000000
   C     34.37000000    11.28000000    11.74000000
   O     35.51000000    10.96000000    11.43000000
   C     33.49000000     9.68000000    13.46000000
   C     33.42000000    10.73000000    14.56000000
   O     32.30000000    10.98000000    15.04000000
   O     34.40000000    11.32000000    15.07000000
   H     34.47000000     8.80000000    11.01000000
   H     32.37000000    10.59000000    11.76000000
   H     34.46000000     9.19000000    13.57000000
   H     32.71000000     8.95000000    13.65000000
   N     33.90000000    12.53000000    11.80000000
   C     34.67000000    13.72000000    11.49000000
   C     35.03000000    14.48000000    12.76000000
   O     34.28000000    14.45000000    13.73000000
   H     32.90000000    12.66000000    11.92000000
   H     34.27000000    14.42000000    10.75000000
   H     35.62000000    13.50000000    11.00000000
   N     36.22000000    15.09000000    12.75000000
   C     36.87000000    15.68000000    13.90000000
   C     37.80000000    16.84000000    13.58000000
   O     37.92000000    17.76000000    14.39000000
   C     37.69000000    14.68000000    14.71000000
   C     36.81000000    13.57000000    15.25000000
   N     36.99000000    12.39000000    14.64000000
   O     35.85000000    13.73000000    16.00000000
   H     36.88000000    14.99000000    11.99000000
   H     36.15000000    16.00000000    14.66000000
   H     38.26000000    15.19000000    15.48000000
   H     38.37000000    14.29000000    13.95000000
   H     37.61000000    12.36000000    13.85000000
   H     36.39000000    11.62000000    14.90000000
   N     38.34000000    16.90000000    12.36000000
   C     38.79000000    18.08000000    11.65000000
   C     40.06000000    18.66000000    12.26000000
   O     41.08000000    17.98000000    12.18000000
   H     38.25000000    16.05000000    11.82000000
   H     38.06000000    18.89000000    11.66000000
   H     39.09000000    17.84000000    10.63000000
   N     39.98000000    19.85000000    12.85000000
   C     41.07000000    20.36000000    13.65000000
   C     41.63000000    19.50000000    14.79000000
   O     42.77000000    19.70000000    15.19000000
   C     42.17000000    20.93000000    12.76000000
   C     41.87000000    22.05000000    11.79000000
   C     42.19000000    21.93000000    10.43000000
   C     41.05000000    23.12000000    12.15000000
   C     41.85000000    22.91000000     9.49000000
   C     40.69000000    24.13000000    11.25000000
   C     41.14000000    24.04000000     9.92000000
   O     40.67000000    24.96000000     9.03000000
   H     39.11000000    20.35000000    12.91000000
   H     40.70000000    21.28000000    14.10000000
   H     42.56000000    20.11000000    12.16000000
   H     43.07000000    21.28000000    13.27000000
   H     42.77000000    21.08000000    10.12000000
   H     40.52000000    23.16000000    13.09000000
   H     42.20000000    22.82000000     8.46000000
   H     39.86000000    24.76000000    11.54000000
   H     40.27000000    25.76000000     9.39000000
   N     40.88000000    18.48000000    15.21000000
   C     41.10000000    17.65000000    16.37000000
   C     40.97000000    18.40000000    17.69000000
   O     40.20000000    17.97000000    18.55000000
   C     42.35000000    16.80000000    16.16000000
   C     42.27000000    16.00000000    14.87000000
   C     42.57000000    15.84000000    17.33000000
   C     43.44000000    15.05000000    14.62000000
   H     39.98000000    18.40000000    14.76000000
   H     40.26000000    16.95000000    16.37000000
   H     43.22000000    17.45000000    16.10000000
   H     42.28000000    16.65000000    13.99000000
   H     41.36000000    15.39000000    14.82000000
   H     43.54000000    15.34000000    17.25000000
   H     42.62000000    16.38000000    18.27000000
   H     41.83000000    15.04000000    17.41000000
   H     43.28000000    14.11000000    15.15000000
   H     43.46000000    14.78000000    13.56000000
   H     44.44000000    15.45000000    14.77000000
   N     41.61000000    19.55000000    17.91000000
   C     41.33000000    20.46000000    19.00000000
   C     41.33000000    19.87000000    20.40000000
   O     40.59000000    20.40000000    21.23000000
   C     42.37000000    21.58000000    18.96000000
   O     42.42000000    22.29000000    17.74000000
   H     42.23000000    19.93000000    17.21000000
   H     40.32000000    20.79000000    18.73000000
   H     43.31000000    21.04000000    19.06000000
   H     42.14000000    22.31000000    19.73000000
   H     43.35000000    22.51000000    17.63000000
   N     42.20000000    18.89000000    20.65000000
   C     42.12000000    17.91000000    21.71000000
   C     40.74000000    17.62000000    22.28000000
   O     40.24000000    18.05000000    23.32000000
   C     43.09000000    18.32000000    22.82000000
   H     42.84000000    18.63000000    19.90000000
   H     42.37000000    16.91000000    21.37000000
   H     42.99000000    17.78000000    23.76000000
   H     44.12000000    18.31000000    22.47000000
   H     42.77000000    19.35000000    23.01000000
   N     39.91000000    16.91000000    21.52000000
   C     38.52000000    16.55000000    21.71000000
   C     38.31000000    15.08000000    21.36000000
   O     39.06000000    14.51000000    20.58000000
   C     37.62000000    17.33000000    20.76000000
   H     40.29000000    16.50000000    20.68000000
   H     38.14000000    16.81000000    22.70000000
   H     37.80000000    18.40000000    20.87000000
   H     37.68000000    17.05000000    19.70000000
   H     36.59000000    17.19000000    21.08000000
   N     37.22000000    14.60000000    21.96000000
   C     36.72000000    13.24000000    21.85000000
   C     37.73000000    12.15000000    22.17000000
   O     37.67000000    11.02000000    21.69000000
   C     35.92000000    13.05000000    20.56000000
   C     34.66000000    13.90000000    20.44000000
   C     34.19000000    13.77000000    19.00000000
   O     33.70000000    12.72000000    18.51000000
   O     34.03000000    14.79000000    18.29000000
   H     36.78000000    15.14000000    22.69000000
   H     35.95000000    13.04000000    22.60000000
   H     35.55000000    12.03000000    20.60000000
   H     36.54000000    13.27000000    19.70000000
   H     34.99000000    14.93000000    20.57000000
   H     33.98000000    13.53000000    21.20000000
   N     38.79000000    12.41000000    22.95000000
   C     39.95000000    11.57000000    23.12000000
   H     40.76500000    12.15800000    23.54200000
   H     39.70900000    10.74800000    23.79400000
   H     40.25400000    11.17000000    22.15300000
   H     38.78000000    13.34000000    23.32000000
  Ca     33.09000000    13.54000000    16.09000000
   O     30.86000000    14.25000000    17.48000000
   H     30.08000000    13.77000000    17.77000000
   H     30.85000000    15.06000000    18.00000000
   O     30.81000000    13.27000000    14.46000000
   H     30.85000000    12.31000000    14.46000000
   H     30.32000000    13.49000000    13.67000000
   O     32.50000000    16.27000000    15.67000000
   H     33.23000000    16.87000000    15.79000000
   H     31.74000000    16.83000000    15.54000000

Ca 1.70



