%chk=loop4.cluster133.chk
%nprocshared=48
%mem=10GB
%nosave
#b3lyp/svp scf=(tight,noincore) Test 
#IOP(5/87=12) Density=Current Pop=(MK,readradii) iop(6/33=2) iop(6/42=6)

loop4.cluster133 

   -3  1 
   C     80.36000000    21.23000000    59.81000000
   C     81.45000000    20.39000000    60.46000000
   O     82.57000000    20.88000000    60.61000000
   H     79.50300000    21.29400000    60.48100000
   H     80.74200000    22.23200000    59.61200000
   H     80.05300000    20.76600000    58.87300000
   N     81.20000000    19.15000000    60.86000000
   C     82.14000000    18.21000000    61.45000000
   C     82.82000000    18.79000000    62.68000000
   O     84.01000000    18.52000000    62.84000000
   C     83.08000000    17.72000000    60.35000000
   C     82.25000000    17.19000000    59.19000000
   O     82.47000000    17.52000000    58.00000000
   O     81.44000000    16.26000000    59.38000000
   H     80.23000000    18.90000000    60.75000000
   H     81.64000000    17.30000000    61.78000000
   H     83.64000000    16.83000000    60.66000000
   H     83.79000000    18.48000000    60.04000000
   N     82.19000000    19.56000000    63.56000000
   C     82.68000000    20.08000000    64.82000000
   C     81.89000000    19.55000000    66.01000000
   O     80.67000000    19.70000000    65.98000000
   C     82.74000000    21.60000000    64.74000000
   C     83.92000000    21.92000000    63.83000000
   C     82.84000000    22.22000000    66.13000000
   C     84.16000000    23.42000000    63.63000000
   H     81.20000000    19.66000000    63.36000000
   H     83.65000000    19.63000000    65.05000000
   H     81.83000000    22.03000000    64.33000000
   H     83.87000000    21.37000000    62.89000000
   H     84.83000000    21.55000000    64.30000000
   H     83.71000000    21.87000000    66.69000000
   H     82.94000000    23.30000000    66.03000000
   H     81.95000000    22.02000000    66.73000000
   H     84.92000000    23.57000000    62.86000000
   H     83.23000000    23.88000000    63.29000000
   H     84.58000000    23.88000000    64.52000000
   N     82.49000000    18.98000000    67.06000000
   C     83.88000000    18.66000000    67.27000000
   C     84.41000000    17.62000000    66.29000000
   O     85.52000000    17.85000000    65.81000000
   C     84.25000000    18.25000000    68.70000000
   C     84.06000000    19.31000000    69.78000000
   O     83.48000000    20.39000000    69.56000000
   O     84.54000000    19.02000000    70.90000000
   H     81.88000000    18.72000000    67.83000000
   H     84.48000000    19.54000000    67.03000000
   H     85.29000000    17.95000000    68.72000000
   H     83.66000000    17.35000000    68.86000000
   N     83.66000000    16.55000000    66.07000000
   C     83.95000000    15.49000000    65.13000000
   C     85.12000000    14.64000000    65.62000000
   O     85.25000000    14.32000000    66.80000000
   H     82.83000000    16.40000000    66.63000000
   H     84.14000000    15.94000000    64.15000000
   H     83.11000000    14.80000000    65.01000000
   N     85.90000000    14.14000000    64.66000000
   C     87.16000000    13.46000000    64.88000000
   C     88.36000000    14.40000000    64.95000000
   O     89.42000000    13.99000000    65.41000000
   C     87.31000000    12.42000000    63.78000000
   C     87.58000000    12.92000000    62.37000000
   O     87.21000000    14.08000000    62.09000000
   O     88.06000000    12.17000000    61.49000000
   H     85.62000000    14.32000000    63.71000000
   H     87.07000000    12.97000000    65.85000000
   H     86.42000000    11.79000000    63.73000000
   H     88.10000000    11.70000000    64.00000000
   N     88.23000000    15.67000000    64.55000000
   C     89.31000000    16.59000000    64.28000000
   C     90.00000000    16.52000000    62.92000000
   O     90.95000000    17.25000000    62.67000000
   H     87.30000000    15.94000000    64.25000000
   H     90.03000000    16.30000000    65.04000000
   H     88.94000000    17.61000000    64.40000000
   N     89.60000000    15.61000000    62.03000000
   C     90.24000000    15.27000000    60.78000000
   C     90.53000000    16.47000000    59.89000000
   O     91.69000000    16.73000000    59.58000000
   C     91.46000000    14.40000000    61.02000000
   C     91.14000000    13.03000000    61.61000000
   C     92.37000000    12.12000000    61.53000000
   N     92.15000000    10.81000000    61.38000000
   O     93.55000000    12.42000000    61.64000000
   H     88.69000000    15.20000000    62.18000000
   H     89.49000000    14.68000000    60.24000000
   H     92.22000000    14.84000000    61.67000000
   H     91.91000000    14.28000000    60.03000000
   H     90.36000000    12.51000000    61.05000000
   H     90.83000000    12.98000000    62.65000000
   H     91.22000000    10.53000000    61.14000000
   H     92.87000000    10.14000000    61.61000000
   N     89.56000000    17.24000000    59.41000000
   C     89.75000000    18.29000000    58.43000000
   C     89.56000000    17.99000000    56.95000000
   O     88.98000000    16.96000000    56.63000000
   C     88.94000000    19.55000000    58.76000000
   C     87.43000000    19.34000000    58.74000000
   C     89.25000000    20.17000000    60.12000000
   H     88.65000000    16.88000000    59.68000000
   H     90.76000000    18.64000000    58.63000000
   H     89.09000000    20.28000000    57.97000000
   H     87.10000000    18.81000000    59.63000000
   H     86.88000000    20.27000000    58.62000000
   H     87.19000000    18.78000000    57.83000000
   H     90.16000000    20.76000000    59.98000000
   H     88.38000000    20.80000000    60.30000000
   H     89.35000000    19.49000000    60.96000000
   N     90.11000000    18.82000000    56.06000000
   C     89.94000000    18.67000000    54.63000000
   C     89.62000000    20.03000000    54.01000000
   O     90.21000000    21.05000000    54.34000000
   C     91.20000000    18.00000000    54.08000000
   C     91.22000000    18.06000000    52.56000000
   N     90.25000000    17.44000000    51.88000000
   O     91.99000000    18.74000000    51.88000000
   H     90.83000000    19.45000000    56.38000000
   H     89.17000000    17.94000000    54.43000000
   H     91.40000000    17.02000000    54.51000000
   H     92.10000000    18.53000000    54.39000000
   H     89.52000000    16.91000000    52.34000000
   H     90.21000000    17.45000000    50.87000000
   N     88.68000000    20.07000000    53.06000000
   C     88.24000000    21.25000000    52.35000000
   C     86.87000000    20.99000000    51.76000000
   O     86.54000000    21.24000000    50.60000000
   C     89.27000000    21.58000000    51.26000000
   C     89.21000000    23.08000000    51.07000000
   C     90.03000000    23.95000000    51.79000000
   C     88.47000000    23.62000000    50.02000000
   C     90.20000000    25.30000000    51.44000000
   C     88.57000000    24.97000000    49.67000000
   C     89.44000000    25.83000000    50.37000000
   O     89.55000000    27.14000000    49.99000000
   H     88.32000000    19.21000000    52.68000000
   H     88.14000000    22.08000000    53.05000000
   H     89.16000000    21.06000000    50.31000000
   H     90.23000000    21.26000000    51.65000000
   H     90.56000000    23.47000000    52.60000000
   H     87.91000000    22.93000000    49.40000000
   H     90.85000000    25.89000000    52.06000000
   H     87.84000000    25.33000000    48.97000000
   H     88.97000000    27.45000000    49.30000000
   N     85.92000000    20.43000000    52.53000000
   C     84.59000000    20.03000000    52.12000000
   C     83.58000000    21.16000000    52.16000000
   O     82.85000000    21.26000000    51.17000000
   C     84.18000000    18.80000000    52.93000000
   C     83.04000000    18.03000000    52.28000000
   C     82.57000000    17.00000000    53.30000000
   O     83.40000000    16.13000000    53.63000000
   O     81.42000000    17.04000000    53.79000000
   H     86.32000000    20.06000000    53.38000000
   H     84.62000000    19.68000000    51.09000000
   H     83.91000000    19.16000000    53.92000000
   H     85.04000000    18.14000000    53.01000000
   H     83.29000000    17.65000000    51.29000000
   H     82.22000000    18.75000000    52.22000000
   N     83.33000000    22.01000000    53.16000000
   C     83.91000000    22.05000000    54.49000000
   C     85.10000000    23.01000000    54.57000000
   O     85.52000000    23.53000000    53.54000000
   C     82.82000000    22.66000000    55.35000000
   C     81.41000000    22.09000000    55.26000000
   C     81.35000000    20.57000000    55.38000000
   O     80.30000000    20.01000000    54.98000000
   O     82.19000000    19.89000000    56.00000000
   H     82.68000000    22.77000000    53.03000000
   H     84.24000000    21.07000000    54.84000000
   H     82.68000000    23.70000000    55.06000000
   H     83.16000000    22.50000000    56.38000000
   H     81.04000000    22.44000000    54.30000000
   H     80.79000000    22.52000000    56.05000000
   N     85.57000000    23.28000000    55.79000000
   C     86.70000000    24.10000000    56.17000000
   H     87.52400000    23.92500000    55.47800000
   H     86.41500000    25.15100000    56.13600000
   H     87.01400000    23.84100000    57.18100000
   H     85.11000000    22.82000000    56.56000000
  Ca     80.72000000    17.73000000    56.23000000
   O     81.32000000    15.12000000    55.88000000
   H     81.36000000    15.34000000    54.94000000
   H     81.95000000    14.40000000    55.98000000

Ca 1.70



