%chk=loop1.cluster152.chk
%nprocshared=48
%mem=10GB
%nosave
#b3lyp/svp scf=(tight,noincore) Test 
#IOP(5/87=12) Density=Current Pop=(MK,readradii) iop(6/33=2) iop(6/42=6)

loop1.cluster152 

   0  1 
   C     77.77000000    63.32000000    33.76000000
   C     78.36000000    63.73000000    32.42000000
   O     77.93000000    63.16000000    31.42000000
   H     76.75400000    62.95400000    33.61200000
   H     78.37900000    62.53000000    34.20000000
   H     77.75200000    64.18100000    34.42900000
   N     79.23000000    64.74000000    32.39000000
   C     79.87000000    65.12000000    31.14000000
   C     78.96000000    65.44000000    29.97000000
   O     79.13000000    64.93000000    28.86000000
   C     81.09000000    64.25000000    30.84000000
   C     82.05000000    64.93000000    29.87000000
   O     83.03000000    64.32000000    29.41000000
   O     81.91000000    66.14000000    29.59000000
   H     79.34000000    65.25000000    33.25000000
   H     80.34000000    66.07000000    31.39000000
   H     80.86000000    63.21000000    30.61000000
   H     81.63000000    64.22000000    31.78000000
   N     77.87000000    66.15000000    30.27000000
   C     76.65000000    66.46000000    29.55000000
   C     76.82000000    66.73000000    28.06000000
   O     75.99000000    66.25000000    27.29000000
   C     76.09000000    67.73000000    30.19000000
   C     74.66000000    68.10000000    29.82000000
   C     74.21000000    69.25000000    30.72000000
   C     75.05000000    70.52000000    30.57000000
   N     74.81000000    70.95000000    29.19000000
   H     77.81000000    66.35000000    31.26000000
   H     76.06000000    65.56000000    29.71000000
   H     76.60000000    68.66000000    29.95000000
   H     76.08000000    67.49000000    31.25000000
   H     74.05000000    67.20000000    29.98000000
   H     74.70000000    68.35000000    28.76000000
   H     74.45000000    68.94000000    31.74000000
   H     73.16000000    69.49000000    30.60000000
   H     76.11000000    70.36000000    30.75000000
   H     74.69000000    71.37000000    31.15000000
   H     73.83000000    70.96000000    28.93000000
   H     75.11000000    71.91000000    29.09000000
   H     75.47000000    70.47000000    28.59000000
   N     77.87000000    67.47000000    27.70000000
   C     78.07000000    67.94000000    26.35000000
   C     79.33000000    67.35000000    25.74000000
   O     79.77000000    67.89000000    24.73000000
   C     78.19000000    69.46000000    26.29000000
   C     77.11000000    70.13000000    27.14000000
   O     77.48000000    70.81000000    28.11000000
   O     75.91000000    70.09000000    26.80000000
   H     78.62000000    67.58000000    28.37000000
   H     77.22000000    67.53000000    25.81000000
   H     78.03000000    70.00000000    25.36000000
   H     79.16000000    69.83000000    26.61000000
   N     80.03000000    66.43000000    26.40000000
   C     81.30000000    65.83000000    26.04000000
   C     82.52000000    66.75000000    26.00000000
   O     82.93000000    67.17000000    24.92000000
   H     79.62000000    66.18000000    27.29000000
   H     81.25000000    65.55000000    24.98000000
   H     81.45000000    64.99000000    26.71000000
   N     83.00000000    67.27000000    27.13000000
   C     84.18000000    68.11000000    27.20000000
   C     85.20000000    67.63000000    28.22000000
   O     86.24000000    68.28000000    28.32000000
   C     83.75000000    69.56000000    27.37000000
   C     83.02000000    70.02000000    26.12000000
   O     81.77000000    69.97000000    26.12000000
   O     83.60000000    70.15000000    25.02000000
   H     82.63000000    66.89000000    27.99000000
   H     84.81000000    68.00000000    26.32000000
   H     84.58000000    70.23000000    27.58000000
   H     83.11000000    69.60000000    28.26000000
   N     84.90000000    66.72000000    29.15000000
   C     85.64000000    66.51000000    30.38000000
   C     86.71000000    65.43000000    30.41000000
   O     86.85000000    64.75000000    29.40000000
   H     84.07000000    66.15000000    29.13000000
   H     84.92000000    66.12000000    31.10000000
   H     86.08000000    67.46000000    30.68000000
   N     87.31000000    65.20000000    31.59000000
   C     88.19000000    64.09000000    31.87000000
   C     89.50000000    64.24000000    31.11000000
   O     89.88000000    65.34000000    30.73000000
   C     88.49000000    64.08000000    33.37000000
   C     89.26000000    65.24000000    33.97000000
   O     87.28000000    63.95000000    34.09000000
   H     87.18000000    65.89000000    32.31000000
   H     87.83000000    63.11000000    31.57000000
   H     89.09000000    63.18000000    33.51000000
   H     87.47000000    64.53000000    34.84000000
   H     89.45000000    65.08000000    35.03000000
   H     90.24000000    65.33000000    33.49000000
   H     88.76000000    66.20000000    33.81000000
   N     90.23000000    63.13000000    30.95000000
   C     91.59000000    63.13000000    30.44000000
   C     92.02000000    61.76000000    29.93000000
   O     92.96000000    61.71000000    29.14000000
   C     92.47000000    63.73000000    31.54000000
   C     93.96000000    63.86000000    31.25000000
   C     92.47000000    62.94000000    32.84000000
   C     94.20000000    64.96000000    30.22000000
   H     89.85000000    62.36000000    31.48000000
   H     91.57000000    63.72000000    29.53000000
   H     92.09000000    64.69000000    31.89000000
   H     94.35000000    62.88000000    30.98000000
   H     94.54000000    64.21000000    32.11000000
   H     92.68000000    61.89000000    32.67000000
   H     93.07000000    63.41000000    33.62000000
   H     91.45000000    62.99000000    33.23000000
   H     93.65000000    65.89000000    30.39000000
   H     95.26000000    65.14000000    30.04000000
   H     93.86000000    64.62000000    29.24000000
   N     91.43000000    60.63000000    30.32000000
   C     91.63000000    59.28000000    29.84000000
   C     91.48000000    58.32000000    31.02000000
   O     90.59000000    58.54000000    31.83000000
   C     90.59000000    58.89000000    28.79000000
   C     90.84000000    59.57000000    27.45000000
   O     90.77000000    57.53000000    28.46000000
   H     90.65000000    60.76000000    30.95000000
   H     92.62000000    59.11000000    29.43000000
   H     89.59000000    59.20000000    29.09000000
   H     89.97000000    57.27000000    28.00000000
   H     90.85000000    60.65000000    27.53000000
   H     91.74000000    59.11000000    27.02000000
   H     89.97000000    59.34000000    26.83000000
   N     92.30000000    57.27000000    31.06000000
   C     92.43000000    56.32000000    32.15000000
   C     92.68000000    56.90000000    33.54000000
   O     92.36000000    56.18000000    34.48000000
   C     93.55000000    55.34000000    31.82000000
   C     94.91000000    55.90000000    31.40000000
   O     93.26000000    54.53000000    30.70000000
   H     92.95000000    57.13000000    30.30000000
   H     91.52000000    55.75000000    32.33000000
   H     93.76000000    54.68000000    32.66000000
   H     92.32000000    54.33000000    30.72000000
   H     94.81000000    56.56000000    30.54000000
   H     95.34000000    56.39000000    32.27000000
   H     95.57000000    55.09000000    31.08000000
   N     93.13000000    58.15000000    33.68000000
   C     93.26000000    58.84000000    34.95000000
   C     91.97000000    59.57000000    35.31000000
   O     91.18000000    59.92000000    34.43000000
   C     94.50000000    59.73000000    34.98000000
   C     95.80000000    58.95000000    35.15000000
   C     96.92000000    59.79000000    34.56000000
   C     98.27000000    59.11000000    34.74000000
   N     98.88000000    59.48000000    36.03000000
   H     93.42000000    58.63000000    32.84000000
   H     93.35000000    58.09000000    35.73000000
   H     94.50000000    60.48000000    35.78000000
   H     94.37000000    60.25000000    34.03000000
   H     95.72000000    57.98000000    34.65000000
   H     95.90000000    58.62000000    36.19000000
   H     96.92000000    60.83000000    34.90000000
   H     96.73000000    59.89000000    33.49000000
   H     98.96000000    59.53000000    34.01000000
   H     98.11000000    58.04000000    34.62000000
   H     98.16000000    59.54000000    36.74000000
   H     99.60000000    58.85000000    36.35000000
   H     99.38000000    60.35000000    35.94000000
   N     91.67000000    59.79000000    36.59000000
   C     90.67000000    60.65000000    37.18000000
   C     90.14000000    60.05000000    38.47000000
   O     90.94000000    59.68000000    39.32000000
   C     91.26000000    62.01000000    37.55000000
   C     91.66000000    62.86000000    36.35000000
   C     92.36000000    64.15000000    36.78000000
   O     91.63000000    65.14000000    36.97000000
   O     93.59000000    64.16000000    36.98000000
   H     92.29000000    59.49000000    37.33000000
   H     89.79000000    60.81000000    36.55000000
   H     92.06000000    61.92000000    38.29000000
   H     90.54000000    62.66000000    38.05000000
   H     90.81000000    63.14000000    35.73000000
   H     92.42000000    62.29000000    35.81000000
   N     88.86000000    59.87000000    38.83000000
   C     87.68000000    60.12000000    38.04000000
   H     86.90500000    60.55200000    38.67300000
   H     87.92100000    60.81500000    37.23600000
   H     87.32100000    59.18300000    37.61500000
   H     88.71000000    59.60000000    39.79000000
  Ca     81.76000000    69.16000000    23.53000000
   O     82.28000000    71.20000000    21.84000000
   H     83.04000000    71.15000000    21.26000000
   H     82.27000000    72.09000000    22.17000000
   O     80.14000000    68.99000000    21.34000000
   H     80.46000000    69.36000000    20.51000000
   H     79.21000000    69.23000000    21.36000000
   O     80.04000000    71.20000000    23.54000000
   H     79.40000000    71.51000000    22.90000000
   H     79.93000000    71.79000000    24.29000000
   O     81.29000000    66.67000000    22.35000000
   H     80.51000000    66.11000000    22.37000000
   H     81.73000000    66.44000000    21.54000000
   O     83.40000000    68.41000000    21.65000000
   H     83.94000000    67.63000000    21.70000000
   H     83.59000000    68.79000000    20.79000000

Ca 1.70



