%chk=loop3.cluster124.chk
%nprocshared=48
%mem=10GB
%nosave
#b3lyp/svp scf=(tight,noincore) Test 
#IOP(5/87=12) Density=Current Pop=(MK,readradii) iop(6/33=2) iop(6/42=6)

loop3.cluster124 

   0  1 
   C     88.31000000    78.51000000    23.11000000
   C     89.81000000    78.26000000    23.03000000
   O     90.40000000    77.45000000    23.74000000
   H     87.78900000    77.55900000    23.22600000
   H     88.09300000    79.14900000    23.96600000
   H     87.97300000    78.99900000    22.19600000
   N     90.46000000    78.91000000    22.06000000
   C     91.82000000    78.71000000    21.61000000
   C     92.84000000    79.06000000    22.69000000
   O     93.28000000    78.12000000    23.34000000
   C     92.19000000    79.52000000    20.36000000
   C     91.59000000    80.89000000    20.10000000
   O     90.49000000    81.02000000    19.53000000
   O     92.35000000    81.79000000    20.52000000
   H     89.89000000    79.65000000    21.67000000
   H     91.90000000    77.66000000    21.33000000
   H     91.79000000    78.94000000    19.53000000
   H     93.27000000    79.57000000    20.24000000
   N     93.25000000    80.32000000    22.86000000
   C     93.94000000    80.79000000    24.04000000
   C     95.42000000    80.44000000    23.98000000
   O     96.30000000    81.31000000    23.91000000
   C     93.65000000    82.27000000    24.27000000
   C     94.25000000    82.86000000    25.55000000
   C     93.84000000    84.33000000    25.67000000
   C     94.46000000    85.00000000    26.89000000
   N     93.98000000    86.37000000    27.11000000
   H     92.89000000    80.99000000    22.20000000
   H     93.50000000    80.14000000    24.80000000
   H     92.57000000    82.38000000    24.19000000
   H     94.13000000    82.86000000    23.49000000
   H     95.33000000    82.83000000    25.58000000
   H     93.85000000    82.35000000    26.43000000
   H     92.76000000    84.46000000    25.67000000
   H     94.15000000    84.89000000    24.78000000
   H     95.55000000    85.00000000    26.88000000
   H     94.34000000    84.37000000    27.78000000
   H     93.10000000    86.43000000    27.60000000
   H     94.56000000    86.80000000    27.81000000
   H     93.97000000    87.01000000    26.32000000
   N     95.71000000    79.14000000    24.06000000
   C     96.97000000    78.43000000    24.18000000
   C     97.14000000    77.17000000    23.34000000
   O     98.12000000    76.44000000    23.47000000
   C     97.19000000    78.08000000    25.65000000
   C     96.10000000    77.20000000    26.25000000
   O     96.29000000    76.74000000    27.40000000
   O     95.00000000    77.00000000    25.70000000
   H     94.88000000    78.59000000    24.21000000
   H     97.70000000    79.15000000    23.81000000
   H     97.39000000    78.96000000    26.25000000
   H     98.19000000    77.66000000    25.79000000
   N     96.11000000    76.72000000    22.61000000
   C     96.28000000    75.72000000    21.58000000
   C     95.02000000    75.24000000    20.87000000
   O     94.20000000    76.13000000    20.68000000
   H     95.20000000    77.17000000    22.61000000
   H     96.88000000    74.87000000    21.90000000
   H     96.91000000    76.16000000    20.81000000
   N     94.85000000    74.03000000    20.32000000
   C     95.77000000    72.92000000    20.37000000
   C     95.01000000    71.61000000    20.18000000
   O     94.02000000    71.64000000    19.45000000
   C     96.89000000    73.08000000    19.34000000
   C     98.13000000    72.23000000    19.52000000
   N     98.20000000    71.06000000    18.87000000
   O     99.08000000    72.60000000    20.20000000
   H     93.99000000    73.96000000    19.81000000
   H     96.14000000    72.72000000    21.38000000
   H     97.20000000    74.13000000    19.27000000
   H     96.52000000    72.90000000    18.33000000
   H     97.52000000    70.73000000    18.20000000
   H     99.14000000    70.70000000    18.92000000
   N     95.38000000    70.48000000    20.78000000
   C     96.37000000    70.39000000    21.84000000
   C     95.94000000    70.91000000    23.21000000
   O     95.02000000    71.72000000    23.25000000
   H     94.79000000    69.67000000    20.67000000
   H     97.34000000    70.84000000    21.61000000
   H     96.55000000    69.32000000    21.89000000
   N     96.55000000    70.36000000    24.26000000
   C     96.07000000    70.40000000    25.63000000
   C     97.14000000    70.43000000    26.71000000
   O     98.12000000    69.69000000    26.64000000
   C     95.09000000    69.27000000    25.92000000
   C     93.89000000    69.12000000    25.02000000
   C     92.71000000    69.82000000    25.29000000
   C     93.95000000    68.37000000    23.83000000
   C     91.58000000    69.59000000    24.50000000
   C     92.84000000    68.17000000    23.00000000
   C     91.65000000    68.86000000    23.30000000
   O     90.51000000    68.57000000    22.61000000
   H     97.37000000    69.84000000    23.99000000
   H     95.53000000    71.34000000    25.63000000
   H     94.83000000    69.25000000    26.98000000
   H     95.68000000    68.37000000    25.78000000
   H     92.54000000    70.29000000    26.25000000
   H     94.80000000    67.79000000    23.49000000
   H     90.61000000    69.99000000    24.78000000
   H     92.96000000    67.50000000    22.16000000
   H     90.62000000    68.11000000    21.77000000
   N     97.07000000    71.30000000    27.72000000
   C     98.00000000    71.41000000    28.83000000
   C     97.73000000    70.21000000    29.73000000
   O     98.60000000    69.82000000    30.50000000
   C     97.72000000    72.70000000    29.59000000
   C     96.32000000    72.65000000    30.19000000
   C     98.81000000    73.11000000    30.58000000
   C     95.75000000    74.06000000    30.30000000
   H     96.32000000    71.97000000    27.65000000
   H     99.05000000    71.38000000    28.54000000
   H     97.85000000    73.43000000    28.79000000
   H     96.23000000    72.21000000    31.19000000
   H     95.66000000    72.21000000    29.44000000
   H     99.70000000    73.24000000    29.97000000
   H     98.44000000    73.98000000    31.12000000
   H     98.89000000    72.35000000    31.36000000
   H     95.91000000    74.75000000    29.47000000
   H     94.70000000    74.09000000    30.61000000
   H     96.26000000    74.58000000    31.10000000
   N     96.50000000    69.69000000    29.81000000
   C     96.02000000    68.50000000    30.48000000
   C     94.98000000    68.77000000    31.56000000
   O     94.57000000    67.79000000    32.18000000
   C     95.52000000    67.49000000    29.45000000
   O     96.50000000    67.34000000    28.44000000
   H     95.82000000    70.13000000    29.20000000
   H     96.85000000    68.07000000    31.03000000
   H     94.53000000    67.73000000    29.07000000
   H     95.44000000    66.52000000    29.94000000
   H     96.29000000    66.55000000    27.94000000
   N     94.74000000    70.02000000    31.96000000
   C     93.85000000    70.27000000    33.08000000
   C     92.76000000    71.31000000    32.86000000
   O     92.97000000    72.33000000    32.21000000
   C     94.56000000    70.63000000    34.38000000
   H     95.16000000    70.85000000    31.56000000
   H     93.27000000    69.40000000    33.38000000
   H     95.41000000    69.96000000    34.43000000
   H     94.92000000    71.66000000    34.39000000
   H     93.92000000    70.39000000    35.23000000
   N     91.59000000    71.07000000    33.46000000
   C     90.45000000    71.96000000    33.59000000
   C     89.97000000    72.65000000    32.32000000
   O     89.30000000    73.67000000    32.46000000
   C     90.73000000    72.97000000    34.70000000
   H     91.58000000    70.22000000    34.01000000
   H     89.59000000    71.39000000    33.91000000
   H     90.96000000    72.36000000    35.58000000
   H     91.55000000    73.59000000    34.36000000
   H     89.80000000    73.49000000    34.90000000
   N     90.15000000    72.08000000    31.12000000
   C     89.70000000    72.67000000    29.88000000
   C     88.29000000    72.25000000    29.50000000
   O     87.55000000    73.09000000    28.99000000
   C     90.67000000    72.44000000    28.72000000
   C     92.00000000    73.18000000    28.84000000
   C     91.87000000    74.62000000    28.37000000
   O     92.68000000    75.09000000    27.55000000
   O     91.04000000    75.37000000    28.93000000
   H     90.79000000    71.31000000    31.09000000
   H     89.66000000    73.74000000    30.06000000
   H     90.25000000    72.74000000    27.75000000
   H     90.91000000    71.38000000    28.65000000
   H     92.66000000    72.67000000    28.13000000
   H     92.50000000    73.05000000    29.80000000
   N     87.93000000    71.00000000    29.78000000
   C     86.73000000    70.27000000    29.41000000
   H     85.94200000    70.97600000    29.14800000
   H     86.94300000    69.63000000    28.55400000
   H     86.40300000    69.65700000    30.25000000
   H     88.66000000    70.36000000    30.04000000
  Ca     92.33000000    76.01000000    24.94000000
   O     90.17000000    76.16000000    26.49000000
   H     89.29000000    76.53000000    26.61000000
   H     90.48000000    75.97000000    27.37000000
   O     91.28000000    73.37000000    25.14000000
   H     91.61000000    72.75000000    24.48000000
   H     90.33000000    73.28000000    25.09000000
   O     94.16000000    74.17000000    24.56000000
   H     94.52000000    73.43000000    24.07000000
   H     94.72000000    74.24000000    25.33000000
   O     92.34000000    78.30000000    26.19000000
   H     92.96000000    78.49000000    26.89000000
   H     91.85000000    79.12000000    26.07000000
   O     92.21000000    75.16000000    22.37000000
   H     92.19000000    74.22000000    22.20000000
   H     92.69000000    75.53000000    21.62000000

Ca 1.70



