%chk=loop4.cluster4.chk
%nprocshared=48
%mem=10GB
%nosave
#b3lyp/svp scf=(tight,noincore) Test 
#IOP(5/87=12) Density=Current Pop=(MK,readradii) iop(6/33=2) iop(6/42=6)

loop4.cluster4 

   -3  1 
   C     95.91000000    80.85000000    46.02000000
   C     96.96000000    79.96000000    46.67000000
   O     96.90000000    78.75000000    46.51000000
   H     95.03900000    80.92000000    46.67200000
   H     96.32500000    81.84500000    45.86100000
   H     95.61300000    80.42200000    45.06300000
   N     97.91000000    80.52000000    47.44000000
   C     99.09000000    79.98000000    48.07000000
   C    100.15000000    79.23000000    47.29000000
   O    101.13000000    78.79000000    47.89000000
   C     98.81000000    79.18000000    49.34000000
   C     97.94000000    77.94000000    49.19000000
   O     96.91000000    77.79000000    49.89000000
   O     98.17000000    77.18000000    48.22000000
   H     97.74000000    81.52000000    47.49000000
   H     99.62000000    80.77000000    48.61000000
   H     98.26000000    79.88000000    49.97000000
   H     99.72000000    78.95000000    49.89000000
   N    100.01000000    79.06000000    45.97000000
   C    100.86000000    78.39000000    45.01000000
   C    100.61000000    76.89000000    45.17000000
   O     99.53000000    76.40000000    45.48000000
   C    100.69000000    78.83000000    43.56000000
   C    101.33000000    80.20000000    43.31000000
   C     99.25000000    78.61000000    43.10000000
   C    101.58000000    80.65000000    41.88000000
   H     99.19000000    79.53000000    45.63000000
   H    101.87000000    78.59000000    45.35000000
   H    101.28000000    78.15000000    42.94000000
   H    102.31000000    80.18000000    43.79000000
   H    100.69000000    80.96000000    43.77000000
   H     99.21000000    78.61000000    42.01000000
   H     98.84000000    77.64000000    43.37000000
   H     98.61000000    79.38000000    43.54000000
   H    102.39000000    80.16000000    41.34000000
   H    100.63000000    80.44000000    41.38000000
   H    101.66000000    81.72000000    42.01000000
   N    101.67000000    76.11000000    44.93000000
   C    101.70000000    74.66000000    44.94000000
   C    101.72000000    74.22000000    46.40000000
   O    102.21000000    74.96000000    47.26000000
   C    102.97000000    74.20000000    44.24000000
   C    104.22000000    75.00000000    44.60000000
   O    104.35000000    76.11000000    44.04000000
   O    105.15000000    74.50000000    45.28000000
   H    102.45000000    76.67000000    44.60000000
   H    100.85000000    74.29000000    44.37000000
   H    102.82000000    74.26000000    43.17000000
   H    103.25000000    73.19000000    44.54000000
   N    101.15000000    73.06000000    46.71000000
   C    100.33000000    72.30000000    45.78000000
   C     99.03000000    72.96000000    45.36000000
   O     98.51000000    73.89000000    45.98000000
   H    101.01000000    72.89000000    47.70000000
   H    100.14000000    71.31000000    46.19000000
   H    100.92000000    72.09000000    44.89000000
   N     98.46000000    72.54000000    44.23000000
   C     98.85000000    71.47000000    43.33000000
   C     98.21000000    71.68000000    41.97000000
   O     97.01000000    71.49000000    41.78000000
   C     98.33000000    70.17000000    43.94000000
   C     98.64000000    68.82000000    43.31000000
   O     99.17000000    68.82000000    42.18000000
   O     98.50000000    67.78000000    43.98000000
   H     97.66000000    73.08000000    43.92000000
   H     99.93000000    71.50000000    43.20000000
   H     97.24000000    70.25000000    44.02000000
   H     98.75000000    70.08000000    44.94000000
   N     98.91000000    72.11000000    40.91000000
   C    100.26000000    72.64000000    40.83000000
   C    100.69000000    73.15000000    39.47000000
   O    101.84000000    72.97000000    39.09000000
   H     98.46000000    72.09000000    40.01000000
   H    100.86000000    71.74000000    40.95000000
   H    100.37000000    73.39000000    41.62000000
   N     99.83000000    73.78000000    38.66000000
   C    100.10000000    74.11000000    37.28000000
   C     99.88000000    75.59000000    36.96000000
   O     99.74000000    75.87000000    35.78000000
   C     99.28000000    73.13000000    36.45000000
   C     99.91000000    71.73000000    36.51000000
   C     99.17000000    70.65000000    35.72000000
   N     98.18000000    69.94000000    36.27000000
   O     99.35000000    70.58000000    34.51000000
   H     98.90000000    74.02000000    38.97000000
   H    101.14000000    73.88000000    37.07000000
   H     99.38000000    73.46000000    35.42000000
   H     98.24000000    73.13000000    36.75000000
   H    100.00000000    71.45000000    37.55000000
   H    100.94000000    71.78000000    36.16000000
   H     97.83000000    70.17000000    37.19000000
   H     97.61000000    69.36000000    35.68000000
   N     99.81000000    76.51000000    37.92000000
   C     99.61000000    77.94000000    37.79000000
   C     98.25000000    78.35000000    38.33000000
   O     97.84000000    78.26000000    39.49000000
   C    100.74000000    78.72000000    38.46000000
   C    100.39000000    80.19000000    38.67000000
   C    101.98000000    78.70000000    37.56000000
   H     99.98000000    76.14000000    38.85000000
   H     99.65000000    78.13000000    36.72000000
   H    100.92000000    78.31000000    39.45000000
   H    101.20000000    80.78000000    39.10000000
   H    100.06000000    80.57000000    37.70000000
   H     99.69000000    80.28000000    39.50000000
   H    102.72000000    79.48000000    37.72000000
   H    102.50000000    77.75000000    37.69000000
   H    101.57000000    78.83000000    36.55000000
   N     97.56000000    79.08000000    37.45000000
   C     96.19000000    79.47000000    37.69000000
   C     95.30000000    78.24000000    37.66000000
   O     94.29000000    78.07000000    38.33000000
   C     95.74000000    80.53000000    36.69000000
   C     94.27000000    80.90000000    36.70000000
   N     93.52000000    80.69000000    35.61000000
   O     93.81000000    81.52000000    37.66000000
   H     97.91000000    79.26000000    36.52000000
   H     96.12000000    79.95000000    38.68000000
   H     95.95000000    80.05000000    35.74000000
   H     96.36000000    81.42000000    36.86000000
   H     93.85000000    80.12000000    34.84000000
   H     92.56000000    80.98000000    35.62000000
   N     95.66000000    77.31000000    36.78000000
   C     95.09000000    75.99000000    36.58000000
   C     95.22000000    75.15000000    37.84000000
   O     96.15000000    75.30000000    38.63000000
   C     95.91000000    75.28000000    35.51000000
   C     95.23000000    75.11000000    34.17000000
   C     95.50000000    75.88000000    33.04000000
   C     94.32000000    74.06000000    33.98000000
   C     95.03000000    75.55000000    31.76000000
   C     93.64000000    73.84000000    32.77000000
   C     93.99000000    74.61000000    31.64000000
   O     93.46000000    74.30000000    30.42000000
   H     96.50000000    77.50000000    36.25000000
   H     94.05000000    76.05000000    36.26000000
   H     96.28000000    74.29000000    35.79000000
   H     96.86000000    75.80000000    35.39000000
   H     96.33000000    76.56000000    33.16000000
   H     94.11000000    73.39000000    34.79000000
   H     95.41000000    76.04000000    30.88000000
   H     92.88000000    73.07000000    32.78000000
   H     93.84000000    74.70000000    29.64000000
   N     94.17000000    74.36000000    38.11000000
   C     94.03000000    73.71000000    39.39000000
   C     93.72000000    74.63000000    40.56000000
   O     93.39000000    74.13000000    41.63000000
   C     95.07000000    72.64000000    39.73000000
   C     95.46000000    71.80000000    38.52000000
   C     96.34000000    70.63000000    38.91000000
   O     95.76000000    69.55000000    39.15000000
   O     97.58000000    70.82000000    38.84000000
   H     93.45000000    74.08000000    37.46000000
   H     93.11000000    73.14000000    39.29000000
   H     94.70000000    72.01000000    40.54000000
   H     95.95000000    73.08000000    40.19000000
   H     96.10000000    72.41000000    37.87000000
   H     94.59000000    71.40000000    38.01000000
   N     93.79000000    75.96000000    40.44000000
   C     93.36000000    76.89000000    41.46000000
   C     92.04000000    77.57000000    41.12000000
   O     91.17000000    77.74000000    41.97000000
   C     94.45000000    77.92000000    41.75000000
   C     95.80000000    77.29000000    42.09000000
   C     95.93000000    76.67000000    43.47000000
   O     96.79000000    75.78000000    43.64000000
   O     95.28000000    76.98000000    44.50000000
   H     94.22000000    76.32000000    39.60000000
   H     93.20000000    76.31000000    42.37000000
   H     94.06000000    78.56000000    42.54000000
   H     94.62000000    78.44000000    40.81000000
   H     96.44000000    78.17000000    42.12000000
   H     96.07000000    76.60000000    41.30000000
   N     91.77000000    77.85000000    39.84000000
   C     90.47000000    78.22000000    39.32000000
   H     89.77900000    78.37700000    40.14800000
   H     90.55800000    79.14000000    38.74200000
   H     90.09400000    77.42200000    38.68000000
   H     92.47000000    77.71000000    39.12000000
  Ca     96.93000000    75.97000000    46.30000000
   O     96.89000000    74.52000000    48.53000000
   H     97.25000000    73.64000000    48.63000000
   H     97.07000000    74.95000000    49.37000000
   O     95.13000000    77.13000000    48.08000000
   H     95.79000000    77.65000000    48.55000000
   H     94.31000000    77.61000000    48.22000000
   O     94.87000000    74.38000000    46.36000000
   H     93.95000000    74.58000000    46.54000000
   H     94.87000000    74.05000000    45.46000000

Ca 1.70



