%chk=loop2.cluster0.chk
%nprocshared=48
%mem=10GB
%nosave
#b3lyp/svp scf=(tight,noincore) Test 
#IOP(5/87=12) Density=Current Pop=(MK,readradii) iop(6/33=2) iop(6/42=6)

loop2.cluster0 

   -2  1 
   C     64.87000000    54.15000000    16.16000000
   C     66.01000000    54.15000000    15.15000000
   O     67.21000000    54.24000000    15.40000000
   H     63.97700000    53.72900000    15.69900000
   H     65.15000000    53.54900000    17.02500000
   H     64.66600000    55.17200000    16.47800000
   N     65.64000000    54.14000000    13.86000000
   C     66.53000000    53.61000000    12.84000000
   C     67.04000000    54.67000000    11.88000000
   O     66.36000000    55.63000000    11.52000000
   C     65.87000000    52.48000000    12.05000000
   C     66.70000000    51.66000000    11.07000000
   O     67.95000000    51.71000000    11.09000000
   O     66.16000000    50.99000000    10.17000000
   H     64.66000000    54.11000000    13.64000000
   H     67.45000000    53.26000000    13.31000000
   H     65.02000000    52.86000000    11.49000000
   H     65.37000000    51.74000000    12.67000000
   N     68.26000000    54.40000000    11.42000000
   C     69.07000000    55.36000000    10.71000000
   C     69.77000000    54.87000000     9.45000000
   O     70.47000000    55.63000000     8.78000000
   C     69.99000000    55.96000000    11.77000000
   H     68.56000000    53.47000000    11.70000000
   H     68.30000000    56.07000000    10.39000000
   H     69.35000000    56.50000000    12.47000000
   H     70.66000000    55.28000000    12.29000000
   H     70.57000000    56.70000000    11.22000000
   N     69.62000000    53.58000000     9.16000000
   C     70.26000000    52.87000000     8.07000000
   C     69.61000000    51.59000000     7.55000000
   O     70.00000000    51.05000000     6.52000000
   C     71.62000000    52.38000000     8.56000000
   C     71.57000000    51.80000000     9.96000000
   O     70.67000000    51.00000000    10.29000000
   O     72.41000000    52.20000000    10.79000000
   H     69.07000000    53.01000000     9.79000000
   H     70.33000000    53.57000000     7.23000000
   H     72.34000000    53.20000000     8.57000000
   H     72.16000000    51.73000000     7.87000000
   N     68.56000000    51.09000000     8.20000000
   C     67.87000000    49.90000000     7.75000000
   C     68.68000000    48.62000000     7.88000000
   O     68.56000000    47.80000000     6.97000000
   H     68.26000000    51.48000000     9.09000000
   H     67.60000000    50.15000000     6.73000000
   H     66.88000000    49.77000000     8.20000000
   N     69.60000000    48.50000000     8.84000000
   C     70.55000000    47.40000000     8.85000000
   C     70.12000000    46.13000000     9.57000000
   O     70.93000000    45.23000000     9.79000000
   C     71.91000000    47.90000000     9.34000000
   C     71.92000000    48.14000000    10.84000000
   N     73.12000000    48.32000000    11.40000000
   O     70.92000000    48.19000000    11.56000000
   H     69.61000000    49.20000000     9.57000000
   H     70.68000000    47.00000000     7.85000000
   H     72.18000000    48.81000000     8.81000000
   H     72.63000000    47.14000000     9.07000000
   H     73.97000000    48.04000000    10.94000000
   H     73.24000000    48.69000000    12.33000000
   N     68.87000000    46.07000000    10.05000000
   C     68.34000000    44.87000000    10.67000000
   C     68.73000000    44.75000000    12.14000000
   O     68.32000000    43.76000000    12.75000000
   H     68.39000000    46.95000000    10.01000000
   H     68.77000000    44.04000000    10.12000000
   H     67.26000000    44.84000000    10.56000000
   N     69.42000000    45.74000000    12.71000000
   C     69.78000000    45.84000000    14.11000000
   C     69.50000000    47.23000000    14.68000000
   O     69.53000000    48.26000000    14.02000000
   C     71.23000000    45.38000000    14.18000000
   C     71.59000000    43.91000000    14.30000000
   O     72.06000000    45.82000000    13.13000000
   H     69.74000000    46.52000000    12.15000000
   H     69.09000000    45.24000000    14.71000000
   H     71.64000000    45.77000000    15.11000000
   H     72.10000000    46.77000000    13.04000000
   H     72.66000000    43.77000000    14.16000000
   H     71.16000000    43.49000000    15.21000000
   H     71.21000000    43.39000000    13.42000000
   N     69.41000000    47.38000000    16.00000000
   C     69.59000000    48.67000000    16.64000000
   C     71.09000000    48.76000000    16.88000000
   O     71.74000000    47.88000000    17.42000000
   C     68.68000000    48.82000000    17.85000000
   C     67.23000000    48.87000000    17.38000000
   C     68.98000000    50.12000000    18.59000000
   C     66.29000000    48.79000000    18.58000000
   H     69.64000000    46.56000000    16.55000000
   H     69.35000000    49.48000000    15.94000000
   H     68.84000000    48.03000000    18.57000000
   H     67.09000000    48.03000000    16.69000000
   H     66.91000000    49.72000000    16.78000000
   H     70.04000000    50.28000000    18.82000000
   H     68.60000000    51.00000000    18.07000000
   H     68.57000000    49.99000000    19.60000000
   H     66.48000000    49.58000000    19.30000000
   H     65.27000000    48.81000000    18.19000000
   H     66.22000000    47.87000000    19.16000000
   N     71.70000000    49.85000000    16.40000000
   C     73.09000000    50.17000000    16.67000000
   C     73.27000000    51.03000000    17.90000000
   O     72.35000000    51.77000000    18.26000000
   C     73.72000000    50.81000000    15.43000000
   C     73.41000000    50.07000000    14.14000000
   O     72.38000000    50.28000000    13.46000000
   O     74.32000000    49.31000000    13.75000000
   H     71.11000000    50.61000000    16.09000000
   H     73.57000000    49.19000000    16.75000000
   H     74.81000000    50.83000000    15.53000000
   H     73.37000000    51.84000000    15.38000000
   N     74.48000000    51.03000000    18.46000000
   C     74.84000000    51.92000000    19.54000000
   C     74.60000000    53.40000000    19.29000000
   O     74.09000000    54.01000000    20.23000000
   C     76.30000000    51.63000000    19.89000000
   C     76.81000000    52.38000000    21.10000000
   C     77.72000000    53.43000000    20.99000000
   C     76.32000000    52.05000000    22.37000000
   C     78.12000000    54.14000000    22.12000000
   C     76.63000000    52.85000000    23.48000000
   C     77.62000000    53.84000000    23.39000000
   H     75.25000000    50.42000000    18.20000000
   H     74.22000000    51.65000000    20.39000000
   H     76.95000000    51.93000000    19.07000000
   H     76.48000000    50.57000000    20.07000000
   H     77.95000000    53.85000000    20.02000000
   H     75.60000000    51.26000000    22.50000000
   H     78.83000000    54.96000000    22.04000000
   H     76.10000000    52.62000000    24.39000000
   H     77.81000000    54.47000000    24.25000000
   N     74.77000000    53.98000000    18.10000000
   C     74.35000000    55.36000000    17.98000000
   C     72.86000000    55.65000000    18.12000000
   O     72.44000000    56.71000000    18.57000000
   C     74.72000000    55.73000000    16.54000000
   C     75.25000000    54.45000000    15.91000000
   C     75.74000000    53.61000000    17.09000000
   H     74.85000000    56.05000000    18.66000000
   H     73.94000000    56.17000000    15.92000000
   H     75.61000000    56.36000000    16.58000000
   H     74.44000000    53.84000000    15.51000000
   H     75.98000000    54.69000000    15.14000000
   H     75.92000000    52.57000000    16.83000000
   H     76.75000000    53.91000000    17.36000000
   N     71.98000000    54.65000000    17.97000000
   C     70.54000000    54.74000000    17.98000000
   C     70.00000000    54.57000000    19.40000000
   O     69.05000000    55.22000000    19.83000000
   C     69.98000000    53.75000000    16.96000000
   C     70.47000000    53.96000000    15.53000000
   C     70.06000000    52.86000000    14.56000000
   O     70.20000000    53.02000000    13.33000000
   O     69.74000000    51.76000000    15.06000000
   H     72.28000000    53.71000000    17.75000000
   H     70.25000000    55.74000000    17.66000000
   H     68.89000000    53.67000000    16.94000000
   H     70.40000000    52.79000000    17.25000000
   H     71.56000000    53.98000000    15.58000000
   H     70.01000000    54.87000000    15.14000000
   N     70.76000000    53.89000000    20.26000000
   C     70.49000000    53.77000000    21.68000000
   H     69.44600000    53.49400000    21.82900000
   H     71.13300000    53.00100000    22.10900000
   H     70.68700000    54.72400000    22.17000000
   H     71.65000000    53.51000000    19.97000000
  Ca     69.87000000    50.56000000    12.59000000
   O     67.56000000    50.63000000    13.91000000
   H     66.69000000    50.32000000    14.16000000
   H     67.89000000    51.07000000    14.70000000
   O     67.82000000    48.86000000    11.77000000
   H     67.34000000    48.31000000    12.39000000
   H     67.21000000    49.01000000    11.05000000

Ca 1.70



