%chk=loop3.cluster150.chk
%nprocshared=48
%mem=10GB
%nosave
#b3lyp/svp scf=(tight,noincore) Test 
#IOP(5/87=12) Density=Current Pop=(MK,readradii) iop(6/33=2) iop(6/42=6)

loop3.cluster150 

   0  1 
   C     53.21000000    54.34000000    46.64000000
   C     53.39000000    53.81000000    48.06000000
   O     52.36000000    53.68000000    48.72000000
   H     52.54000000    55.20000000    46.65600000
   H     54.17800000    54.64100000    46.23900000
   H     52.78200000    53.55900000    46.01100000
   N     54.60000000    53.38000000    48.41000000
   C     54.90000000    52.82000000    49.71000000
   C     54.82000000    53.70000000    50.95000000
   O     55.68000000    53.70000000    51.83000000
   C     54.33000000    51.43000000    49.94000000
   C     54.96000000    50.40000000    49.01000000
   O     54.41000000    50.17000000    47.91000000
   O     55.97000000    49.77000000    49.39000000
   H     55.13000000    53.27000000    47.56000000
   H     55.98000000    52.69000000    49.57000000
   H     53.29000000    51.56000000    49.64000000
   H     54.33000000    51.12000000    50.98000000
   N     53.78000000    54.54000000    51.04000000
   C     53.50000000    55.43000000    52.15000000
   C     53.03000000    54.80000000    53.45000000
   O     52.76000000    55.47000000    54.45000000
   C     52.76000000    56.69000000    51.70000000
   C     51.25000000    56.47000000    51.56000000
   C     50.35000000    57.59000000    51.03000000
   C     48.88000000    57.16000000    51.00000000
   N     48.43000000    57.00000000    52.39000000
   H     52.99000000    54.45000000    50.42000000
   H     54.45000000    55.87000000    52.46000000
   H     53.15000000    56.97000000    50.73000000
   H     52.91000000    57.47000000    52.44000000
   H     50.84000000    56.26000000    52.54000000
   H     51.13000000    55.66000000    50.83000000
   H     50.60000000    58.11000000    50.12000000
   H     50.48000000    58.39000000    51.76000000
   H     48.85000000    56.25000000    50.40000000
   H     48.32000000    57.99000000    50.56000000
   H     48.82000000    56.18000000    52.82000000
   H     48.68000000    57.75000000    53.01000000
   H     47.43000000    56.85000000    52.38000000
   N     53.02000000    53.47000000    53.46000000
   C     53.15000000    52.70000000    54.68000000
   C     53.98000000    51.48000000    54.31000000
   O     53.61000000    50.69000000    53.44000000
   C     51.85000000    52.47000000    55.44000000
   C     50.54000000    52.17000000    54.74000000
   O     50.41000000    51.00000000    54.31000000
   O     49.54000000    52.92000000    54.84000000
   H     53.14000000    52.97000000    52.58000000
   H     53.75000000    53.39000000    55.27000000
   H     51.74000000    53.31000000    56.13000000
   H     52.04000000    51.67000000    56.16000000
   N     55.19000000    51.46000000    54.88000000
   C     56.37000000    50.85000000    54.30000000
   C     56.39000000    49.34000000    54.54000000
   O     57.44000000    48.74000000    54.73000000
   H     55.43000000    52.19000000    55.54000000
   H     57.27000000    51.31000000    54.72000000
   H     56.39000000    51.02000000    53.23000000
   N     55.24000000    48.67000000    54.45000000
   C     55.11000000    47.24000000    54.29000000
   C     54.61000000    46.82000000    52.91000000
   O     54.64000000    45.67000000    52.47000000
   C     54.30000000    46.64000000    55.43000000
   C     52.81000000    46.64000000    55.09000000
   N     52.20000000    45.51000000    54.74000000
   O     52.16000000    47.68000000    55.15000000
   H     54.44000000    49.27000000    54.33000000
   H     56.12000000    46.82000000    54.35000000
   H     54.33000000    47.24000000    56.34000000
   H     54.67000000    45.64000000    55.64000000
   H     52.71000000    44.64000000    54.72000000
   H     51.22000000    45.42000000    54.52000000
   N     54.10000000    47.75000000    52.10000000
   C     53.51000000    47.66000000    50.79000000
   C     52.22000000    46.85000000    50.73000000
   O     51.38000000    47.12000000    49.88000000
   H     54.14000000    48.68000000    52.49000000
   H     54.19000000    47.40000000    49.97000000
   H     53.26000000    48.71000000    50.61000000
   N     51.94000000    45.90000000    51.63000000
   C     50.72000000    45.12000000    51.69000000
   C     49.37000000    45.81000000    51.83000000
   O     48.33000000    45.21000000    51.57000000
   C     50.89000000    44.12000000    50.55000000
   C     52.16000000    43.31000000    50.58000000
   C     52.25000000    42.30000000    51.54000000
   C     53.24000000    43.62000000    49.74000000
   C     53.47000000    41.63000000    51.71000000
   C     54.45000000    42.95000000    49.92000000
   C     54.61000000    42.04000000    50.99000000
   O     55.84000000    41.55000000    51.34000000
   H     52.49000000    45.85000000    52.48000000
   H     50.86000000    44.59000000    52.63000000
   H     50.84000000    44.67000000    49.61000000
   H     50.02000000    43.48000000    50.37000000
   H     51.45000000    42.14000000    52.25000000
   H     53.21000000    44.48000000    49.08000000
   H     53.55000000    40.85000000    52.44000000
   H     55.26000000    43.33000000    49.32000000
   H     56.47000000    41.93000000    50.72000000
   N     49.35000000    47.09000000    52.21000000
   C     48.30000000    48.08000000    52.35000000
   C     47.27000000    47.86000000    53.45000000
   O     46.84000000    48.80000000    54.11000000
   C     47.73000000    48.55000000    51.01000000
   C     47.38000000    50.02000000    51.16000000
   C     46.49000000    47.76000000    50.59000000
   C     47.00000000    50.70000000    49.85000000
   H     50.26000000    47.46000000    52.45000000
   H     48.88000000    48.94000000    52.68000000
   H     48.52000000    48.52000000    50.26000000
   H     48.27000000    50.54000000    51.53000000
   H     46.55000000    50.18000000    51.85000000
   H     46.60000000    46.68000000    50.49000000
   H     45.68000000    48.05000000    51.26000000
   H     46.26000000    48.09000000    49.58000000
   H     47.73000000    50.40000000    49.09000000
   H     46.00000000    50.43000000    49.53000000
   H     46.94000000    51.78000000    50.02000000
   N     46.89000000    46.60000000    53.64000000
   C     46.06000000    46.10000000    54.72000000
   C     44.60000000    46.05000000    54.31000000
   O     43.79000000    46.28000000    55.21000000
   C     46.47000000    44.70000000    55.18000000
   O     46.93000000    43.85000000    54.15000000
   H     47.36000000    45.90000000    53.08000000
   H     46.14000000    46.74000000    55.60000000
   H     45.66000000    44.23000000    55.73000000
   H     47.30000000    44.72000000    55.89000000
   H     46.74000000    42.96000000    54.45000000
   N     44.28000000    45.65000000    53.08000000
   C     42.93000000    45.58000000    52.56000000
   C     42.23000000    46.91000000    52.33000000
   O     41.52000000    46.95000000    51.33000000
   C     42.11000000    44.59000000    53.37000000
   H     44.98000000    45.39000000    52.40000000
   H     43.06000000    45.22000000    51.54000000
   H     42.62000000    43.69000000    53.70000000
   H     41.80000000    45.19000000    54.23000000
   H     41.22000000    44.25000000    52.83000000
   N     42.40000000    47.89000000    53.22000000
   C     41.82000000    49.21000000    53.07000000
   C     42.59000000    50.03000000    52.05000000
   O     43.56000000    49.57000000    51.45000000
   C     41.96000000    49.90000000    54.43000000
   H     43.02000000    47.72000000    54.00000000
   H     40.77000000    49.20000000    52.76000000
   H     41.25000000    49.47000000    55.13000000
   H     42.96000000    49.77000000    54.84000000
   H     41.72000000    50.96000000    54.45000000
   N     42.19000000    51.29000000    51.91000000
   C     42.72000000    52.48000000    51.27000000
   C     43.18000000    52.38000000    49.82000000
   O     43.57000000    53.41000000    49.26000000
   C     43.70000000    53.23000000    52.17000000
   C     44.95000000    52.40000000    52.43000000
   C     45.76000000    52.93000000    53.60000000
   O     45.43000000    53.89000000    54.34000000
   O     46.80000000    52.31000000    53.89000000
   H     41.46000000    51.54000000    52.57000000
   H     41.86000000    53.12000000    51.04000000
   H     43.30000000    53.42000000    53.16000000
   H     43.92000000    54.21000000    51.72000000
   H     45.64000000    52.53000000    51.59000000
   H     44.82000000    51.33000000    52.60000000
   N     43.13000000    51.18000000    49.25000000
   C     43.65000000    50.94000000    47.92000000
   H     44.67200000    50.56700000    47.99200000
   H     43.02900000    50.20100000    47.41400000
   H     43.64300000    51.87100000    47.35300000
   H     43.06000000    50.37000000    49.85000000
  Ca     47.88000000    50.65000000    55.61000000
   O     45.36000000    50.93000000    56.36000000
   H     44.76000000    51.66000000    56.18000000
   H     44.85000000    50.33000000    56.90000000
   O     49.23000000    51.43000000    57.80000000
   H     49.67000000    52.27000000    57.90000000
   H     49.11000000    51.11000000    58.70000000
   O     49.64000000    48.77000000    55.78000000
   H     50.47000000    48.93000000    55.35000000
   H     49.79000000    48.01000000    56.33000000
   O     47.45000000    53.58000000    56.21000000
   H     48.31000000    53.43000000    55.81000000
   H     46.84000000    53.56000000    55.47000000
   O     47.16000000    48.85000000    57.74000000
   H     47.81000000    48.15000000    57.80000000
   H     46.77000000    48.90000000    58.61000000

Ca 1.70



