%chk=loop3.cluster178.chk
%nprocshared=48
%mem=10GB
%nosave
#b3lyp/svp scf=(tight,noincore) Test 
#IOP(5/87=12) Density=Current Pop=(MK,readradii) iop(6/33=2) iop(6/42=6)

loop3.cluster178 

   0  1 
   C     17.59000000   -20.86000000    36.42000000
   C     18.22000000   -22.21000000    36.73000000
   O     18.96000000   -22.37000000    37.70000000
   H     16.64400000   -20.77000000    36.95400000
   H     18.26300000   -20.06300000    36.73600000
   H     17.41000000   -20.78000000    35.34800000
   N     18.02000000   -23.17000000    35.83000000
   C     18.51000000   -24.53000000    35.90000000
   C     20.03000000   -24.57000000    35.95000000
   O     20.62000000   -24.11000000    34.97000000
   C     17.95000000   -25.49000000    34.85000000
   C     18.03000000   -26.98000000    35.14000000
   O     18.61000000   -27.39000000    36.17000000
   O     17.56000000   -27.83000000    34.35000000
   H     17.41000000   -22.86000000    35.08000000
   H     18.12000000   -24.85000000    36.87000000
   H     18.53000000   -25.31000000    33.94000000
   H     16.92000000   -25.19000000    34.68000000
   N     20.66000000   -25.19000000    36.95000000
   C     22.08000000   -25.22000000    37.21000000
   C     22.96000000   -25.83000000    36.13000000
   O     24.16000000   -25.54000000    36.16000000
   C     22.49000000   -25.76000000    38.58000000
   C     22.20000000   -27.25000000    38.73000000
   C     22.08000000   -27.80000000    40.15000000
   C     20.80000000   -27.32000000    40.83000000
   N     20.68000000   -27.74000000    42.24000000
   H     20.08000000   -25.50000000    37.71000000
   H     22.46000000   -24.21000000    37.37000000
   H     21.80000000   -25.32000000    39.29000000
   H     23.55000000   -25.53000000    38.72000000
   H     22.97000000   -27.81000000    38.21000000
   H     21.31000000   -27.60000000    38.21000000
   H     22.88000000   -27.42000000    40.79000000
   H     22.05000000   -28.89000000    40.13000000
   H     19.97000000   -27.61000000    40.19000000
   H     20.75000000   -26.23000000    40.85000000
   H     21.53000000   -27.47000000    42.71000000
   H     19.93000000   -27.23000000    42.69000000
   H     20.38000000   -28.70000000    42.35000000
   N     22.43000000   -26.64000000    35.20000000
   C     23.18000000   -27.22000000    34.10000000
   C     22.85000000   -26.66000000    32.73000000
   O     23.66000000   -26.66000000    31.80000000
   C     22.88000000   -28.71000000    34.19000000
   C     21.43000000   -29.12000000    34.37000000
   O     20.51000000   -28.30000000    34.16000000
   O     21.16000000   -30.25000000    34.83000000
   H     21.47000000   -26.91000000    35.35000000
   H     24.24000000   -27.08000000    34.32000000
   H     23.34000000   -29.08000000    35.10000000
   H     23.38000000   -29.23000000    33.37000000
   N     21.61000000   -26.18000000    32.61000000
   C     20.94000000   -25.80000000    31.38000000
   C     20.50000000   -26.98000000    30.52000000
   O     20.48000000   -26.94000000    29.29000000
   H     21.14000000   -26.26000000    33.50000000
   H     21.63000000   -25.14000000    30.84000000
   H     20.10000000   -25.13000000    31.52000000
   N     20.29000000   -28.11000000    31.19000000
   C     19.80000000   -29.35000000    30.60000000
   C     18.54000000   -29.80000000    31.33000000
   O     18.57000000   -30.13000000    32.51000000
   C     20.87000000   -30.44000000    30.63000000
   C     20.46000000   -31.78000000    30.04000000
   N     21.20000000   -32.78000000    30.51000000
   O     19.45000000   -31.97000000    29.37000000
   H     20.35000000   -28.16000000    32.19000000
   H     19.54000000   -29.16000000    29.56000000
   H     21.20000000   -30.56000000    31.66000000
   H     21.70000000   -30.08000000    30.02000000
   H     22.14000000   -32.56000000    30.80000000
   H     21.04000000   -33.75000000    30.27000000
   N     17.41000000   -29.90000000    30.62000000
   C     16.08000000   -30.15000000    31.14000000
   C     15.87000000   -31.64000000    31.37000000
   O     14.85000000   -32.07000000    31.92000000
   H     17.46000000   -29.85000000    29.62000000
   H     15.36000000   -29.85000000    30.38000000
   H     15.81000000   -29.55000000    32.01000000
   N     16.86000000   -32.50000000    31.13000000
   C     16.83000000   -33.89000000    31.54000000
   C     16.74000000   -33.94000000    33.06000000
   O     17.49000000   -33.24000000    33.73000000
   C     17.90000000   -34.72000000    30.84000000
   C     17.90000000   -36.19000000    31.19000000
   C     18.38000000   -36.50000000    32.46000000
   C     17.32000000   -37.19000000    30.40000000
   C     18.24000000   -37.83000000    32.87000000
   C     17.01000000   -38.46000000    30.91000000
   C     17.47000000   -38.80000000    32.20000000
   O     17.22000000   -40.05000000    32.68000000
   H     17.74000000   -32.16000000    30.75000000
   H     15.87000000   -34.25000000    31.18000000
   H     18.86000000   -34.29000000    31.12000000
   H     17.72000000   -34.55000000    29.78000000
   H     18.83000000   -35.70000000    33.03000000
   H     17.06000000   -36.95000000    29.38000000
   H     18.49000000   -38.08000000    33.90000000
   H     16.43000000   -39.11000000    30.27000000
   H     16.78000000   -40.50000000    31.96000000
   N     15.80000000   -34.79000000    33.48000000
   C     15.51000000   -35.13000000    34.86000000
   C     16.67000000   -35.86000000    35.52000000
   O     17.82000000   -35.42000000    35.57000000
   C     15.01000000   -33.92000000    35.63000000
   C     14.53000000   -34.28000000    37.04000000
   C     13.82000000   -33.25000000    34.95000000
   C     15.67000000   -34.32000000    38.05000000
   H     15.28000000   -35.23000000    32.72000000
   H     14.67000000   -35.82000000    34.78000000
   H     15.85000000   -33.23000000    35.77000000
   H     14.01000000   -35.24000000    37.04000000
   H     13.77000000   -33.60000000    37.43000000
   H     13.02000000   -33.97000000    34.86000000
   H     13.47000000   -32.41000000    35.56000000
   H     14.10000000   -32.86000000    33.97000000
   H     15.56000000   -33.37000000    38.57000000
   H     15.49000000   -35.09000000    38.80000000
   H     16.66000000   -34.43000000    37.61000000
   N     16.31000000   -36.97000000    36.15000000
   C     17.19000000   -37.97000000    36.73000000
   C     16.61000000   -39.36000000    36.93000000
   O     17.31000000   -40.22000000    37.47000000
   C     17.48000000   -37.50000000    38.16000000
   O     18.28000000   -36.34000000    38.13000000
   H     15.32000000   -37.14000000    36.20000000
   H     18.11000000   -37.92000000    36.14000000
   H     18.05000000   -38.24000000    38.71000000
   H     16.57000000   -37.30000000    38.72000000
   H     18.14000000   -35.90000000    37.29000000
   N     15.35000000   -39.56000000    36.54000000
   C     14.70000000   -40.85000000    36.56000000
   C     14.72000000   -41.61000000    37.88000000
   O     14.93000000   -42.82000000    37.89000000
   C     14.87000000   -41.69000000    35.30000000
   H     14.75000000   -38.78000000    36.30000000
   H     13.65000000   -40.54000000    36.52000000
   H     14.37000000   -41.22000000    34.45000000
   H     15.89000000   -41.95000000    35.01000000
   H     14.39000000   -42.67000000    35.43000000
   N     14.36000000   -41.15000000    39.08000000
   C     13.98000000   -39.80000000    39.47000000
   C     12.62000000   -39.78000000    40.14000000
   O     12.22000000   -40.85000000    40.59000000
   C     15.06000000   -39.25000000    40.39000000
   H     14.43000000   -41.80000000    39.84000000
   H     13.92000000   -39.15000000    38.60000000
   H     14.95000000   -38.18000000    40.57000000
   H     15.05000000   -39.80000000    41.33000000
   H     16.06000000   -39.28000000    39.95000000
   N     11.84000000   -38.69000000    40.22000000
   C     12.01000000   -37.46000000    39.48000000
   C     10.72000000   -37.03000000    38.80000000
   O     10.80000000   -36.31000000    37.80000000
   C     12.46000000   -36.45000000    40.54000000
   C     12.59000000   -35.05000000    39.96000000
   C     13.09000000   -34.03000000    40.97000000
   O     14.28000000   -34.00000000    41.34000000
   O     12.32000000   -33.24000000    41.55000000
   H     10.99000000   -38.91000000    40.72000000
   H     12.79000000   -37.62000000    38.75000000
   H     13.41000000   -36.80000000    40.95000000
   H     11.71000000   -36.32000000    41.32000000
   H     11.60000000   -34.76000000    39.61000000
   H     13.25000000   -35.20000000    39.10000000
   N      9.55000000   -37.54000000    39.17000000
   C      8.29000000   -37.23000000    38.51000000
   H      7.56000000   -36.90900000    39.25300000
   H      8.44600000   -36.43100000    37.78600000
   H      7.91900000   -38.11800000    37.99800000
   H      9.60000000   -37.99000000    40.07000000
  Ca     18.66000000   -29.81200000    35.39000000
   O     19.00000000   -32.39200000    36.12000000
   H     19.81000000   -32.68200000    36.55000000
   H     18.76000000   -33.12200000    35.55000000
   O     16.25000000   -30.82200000    34.61000000
   H     16.41000000   -31.66200000    34.18000000
   H     15.31000000   -30.68200000    34.52000000
   O     20.35000000   -30.01200000    37.30000000
   H     20.49000000   -30.32200000    38.20000000
   H     20.98000000   -30.50200000    36.78000000
   O     17.19000000   -29.70200000    37.56000000
   H     17.34000000   -30.53200000    38.01000000
   H     16.85000000   -29.11200000    38.23000000

Ca 1.70



