%chk=loop2.cluster170.chk
%nprocshared=48
%mem=10GB
%nosave
#b3lyp/svp scf=(tight,noincore) Test 
#IOP(5/87=12) Density=Current Pop=(MK,readradii) iop(6/33=2) iop(6/42=6)

loop2.cluster170 

   -2  1 
   C     85.11000000    76.38000000     3.27000000
   C     84.95000000    74.93000000     3.69000000
   O     85.82000000    74.41000000     4.39000000
   H     86.09600000    76.52300000     2.82700000
   H     84.34300000    76.63300000     2.53800000
   H     85.00700000    77.02500000     4.14300000
   N     83.89000000    74.18000000     3.37000000
   C     82.70000000    74.61000000     2.66000000
   C     82.45000000    73.76000000     1.43000000
   O     82.33000000    72.55000000     1.54000000
   C     81.52000000    74.53000000     3.62000000
   C     81.17000000    73.25000000     4.36000000
   O     82.02000000    72.34000000     4.52000000
   O     80.03000000    73.01000000     4.81000000
   H     83.97000000    73.18000000     3.46000000
   H     82.90000000    75.65000000     2.38000000
   H     80.62000000    74.90000000     3.12000000
   H     81.66000000    75.27000000     4.41000000
   N     82.40000000    74.39000000     0.25000000
   C     81.96000000    73.99000000    -1.08000000
   C     80.50000000    73.57000000    -1.09000000
   O     79.68000000    74.30000000    -1.64000000
   C     82.93000000    72.95000000    -1.64000000
   H     82.45000000    75.39000000     0.34000000
   H     82.04000000    74.92000000    -1.64000000
   H     82.91000000    72.09000000    -0.98000000
   H     82.54000000    72.63000000    -2.61000000
   H     83.91000000    73.40000000    -1.81000000
   N     80.18000000    72.38000000    -0.58000000
   C     78.86000000    71.83000000    -0.35000000
   C     78.76000000    71.39000000     1.11000000
   O     79.69000000    71.05000000     1.84000000
   C     78.53000000    70.68000000    -1.30000000
   C     79.35000000    69.41000000    -1.20000000
   O     78.76000000    68.32000000    -1.38000000
   O     80.56000000    69.45000000    -0.88000000
   H     80.97000000    71.79000000    -0.36000000
   H     78.16000000    72.64000000    -0.50000000
   H     78.78000000    71.05000000    -2.30000000
   H     77.46000000    70.48000000    -1.31000000
   N     77.50000000    71.35000000     1.56000000
   C     77.11000000    71.03000000     2.92000000
   C     75.62000000    70.82000000     3.15000000
   O     74.74000000    71.50000000     2.63000000
   H     76.70000000    71.53000000     0.97000000
   H     77.50000000    71.88000000     3.48000000
   H     77.78000000    70.23000000     3.24000000
   N     75.39000000    69.79000000     3.97000000
   C     74.12000000    69.19000000     4.34000000
   C     73.80000000    69.53000000     5.79000000
   O     74.60000000    69.97000000     6.61000000
   C     74.30000000    67.70000000     4.11000000
   C     74.50000000    67.07000000     2.73000000
   N     73.50000000    67.10000000     1.85000000
   O     75.55000000    66.59000000     2.31000000
   H     76.11000000    69.56000000     4.63000000
   H     73.32000000    69.57000000     3.71000000
   H     73.39000000    67.24000000     4.51000000
   H     75.11000000    67.42000000     4.78000000
   H     72.67000000    67.67000000     1.98000000
   H     73.56000000    66.70000000     0.93000000
   N     72.51000000    69.36000000     6.13000000
   C     71.85000000    69.80000000     7.33000000
   C     71.32000000    68.63000000     8.16000000
   O     71.36000000    67.51000000     7.67000000
   H     71.91000000    68.95000000     5.43000000
   H     71.02000000    70.49000000     7.16000000
   H     72.60000000    70.32000000     7.92000000
   N     70.94000000    68.84000000     9.42000000
   C     70.97000000    70.00000000    10.28000000
   C     72.31000000    70.27000000    10.94000000
   O     72.68000000    71.42000000    11.16000000
   C     69.88000000    69.98000000    11.35000000
   C     68.43000000    69.76000000    10.93000000
   O     70.16000000    68.89000000    12.20000000
   H     70.60000000    67.99000000     9.87000000
   H     70.85000000    70.79000000     9.54000000
   H     69.95000000    70.89000000    11.95000000
   H     69.99000000    69.07000000    13.13000000
   H     68.28000000    70.30000000     9.99000000
   H     68.22000000    68.72000000    10.66000000
   H     67.82000000    70.15000000    11.74000000
   N     73.06000000    69.19000000    11.18000000
   C     74.28000000    69.09000000    11.95000000
   C     74.05000000    69.39000000    13.42000000
   O     73.81000000    70.54000000    13.82000000
   C     75.44000000    69.91000000    11.38000000
   C     75.67000000    69.67000000     9.89000000
   C     76.75000000    69.77000000    12.15000000
   C     75.61000000    68.20000000     9.47000000
   H     72.59000000    68.30000000    11.04000000
   H     74.61000000    68.06000000    11.79000000
   H     75.08000000    70.94000000    11.42000000
   H     76.66000000    70.08000000     9.68000000
   H     74.89000000    70.10000000     9.27000000
   H     76.73000000    69.91000000    13.23000000
   H     77.05000000    68.74000000    11.94000000
   H     77.36000000    70.53000000    11.66000000
   H     76.42000000    67.69000000    10.00000000
   H     74.63000000    67.74000000     9.61000000
   H     75.72000000    68.29000000     8.39000000
   N     74.07000000    68.35000000    14.25000000
   C     74.26000000    66.94000000    13.96000000
   C     75.68000000    66.49000000    13.67000000
   O     75.95000000    66.04000000    12.56000000
   C     73.60000000    66.01000000    14.98000000
   C     74.03000000    66.18000000    16.43000000
   O     73.58000000    65.36000000    17.26000000
   O     74.81000000    67.09000000    16.78000000
   H     73.71000000    68.49000000    15.18000000
   H     73.69000000    66.82000000    13.04000000
   H     73.87000000    65.01000000    14.65000000
   H     72.52000000    66.13000000    14.90000000
   N     76.58000000    66.55000000    14.66000000
   C     77.95000000    66.13000000    14.49000000
   C     78.21000000    64.81000000    15.20000000
   O     77.37000000    64.42000000    16.01000000
   C     78.85000000    67.27000000    14.96000000
   C     78.87000000    67.65000000    16.42000000
   C     78.05000000    68.61000000    17.03000000
   C     79.69000000    66.87000000    17.24000000
   C     78.07000000    68.77000000    18.42000000
   C     79.72000000    67.08000000    18.62000000
   C     78.90000000    68.02000000    19.27000000
   H     76.22000000    66.66000000    15.60000000
   H     78.20000000    65.94000000    13.45000000
   H     78.55000000    68.10000000    14.32000000
   H     79.84000000    67.04000000    14.56000000
   H     77.48000000    69.29000000    16.42000000
   H     80.41000000    66.17000000    16.81000000
   H     77.46000000    69.53000000    18.90000000
   H     80.43000000    66.53000000    19.22000000
   H     78.80000000    68.08000000    20.34000000
   N     79.29000000    64.07000000    14.94000000
   C     80.49000000    64.26000000    14.16000000
   C     80.19000000    64.25000000    12.66000000
   O     79.08000000    64.02000000    12.20000000
   C     81.47000000    63.19000000    14.62000000
   C     80.58000000    62.02000000    15.07000000
   C     79.42000000    62.82000000    15.66000000
   H     80.99000000    65.21000000    14.36000000
   H     82.04000000    62.89000000    13.75000000
   H     82.11000000    63.52000000    15.43000000
   H     80.25000000    61.46000000    14.19000000
   H     81.12000000    61.45000000    15.82000000
   H     78.50000000    62.23000000    15.67000000
   H     79.57000000    63.00000000    16.72000000
   N     81.20000000    64.62000000    11.88000000
   C     81.15000000    65.05000000    10.49000000
   C     81.78000000    66.37000000    10.10000000
   O     82.25000000    66.49000000     8.97000000
   C     81.52000000    63.92000000     9.54000000
   C     80.53000000    62.76000000     9.60000000
   C     81.01000000    61.68000000     8.64000000
   O     81.96000000    60.96000000     9.03000000
   O     80.37000000    61.40000000     7.61000000
   H     82.09000000    64.66000000    12.37000000
   H     80.08000000    65.23000000    10.39000000
   H     82.53000000    63.59000000     9.79000000
   H     81.50000000    64.23000000     8.49000000
   H     79.53000000    63.05000000     9.28000000
   H     80.43000000    62.40000000    10.62000000
   N     81.92000000    67.45000000    10.88000000
   C     81.64000000    67.74000000    12.27000000
   H     80.59700000    67.50700000    12.48600000
   H     82.28600000    67.13500000    12.90500000
   H     81.82400000    68.79600000    12.46600000
   H     82.49000000    68.17000000    10.46000000
  Ca     81.87000000    70.28000000     3.07000000
   O     80.51000000    68.29000000     1.70000000
   H     80.46000000    68.29000000     0.75000000
   H     79.83000000    67.68000000     1.98000000
   O     83.02000000    67.75000000     3.21000000
   H     83.88000000    67.33000000     3.33000000
   H     82.62000000    67.27000000     2.49000000
   O     79.78000000    70.29000000     4.91000000
   H     79.06000000    69.86000000     5.38000000
   H     79.63000000    71.23000000     5.05000000
   O     84.68000000    70.95000000     3.25000000
   H     85.29000000    70.61000000     3.89000000
   H     85.23000000    71.44000000     2.63000000
   O     82.51000000    69.48000000     5.65000000
   H     83.33000000    69.05000000     5.89000000
   H     81.85000000    69.03000000     6.18000000
   O     82.86000000    69.94000000     0.41000000
   H     82.15000000    69.70000000    -0.18000000
   H     83.64000000    69.56000000     0.01000000

Ca 1.70



