%chk=loop4.cluster103.chk
%nprocshared=48
%mem=10GB
%nosave
#b3lyp/svp scf=(tight,noincore) Test 
#IOP(5/87=12) Density=Current Pop=(MK,readradii) iop(6/33=2) iop(6/42=6)

loop4.cluster103 

   -3  1 
   C     55.72000000    59.07000000    43.86000000
   C     54.65000000    59.83000000    44.64000000
   O     53.67000000    60.31000000    44.07000000
   H     56.63300000    59.01800000    44.45300000
   H     55.36700000    58.06100000    43.64700000
   H     55.92500000    59.58900000    42.92400000
   N     54.98000000    59.97000000    45.92000000
   C     54.13000000    60.63000000    46.89000000
   C     54.27000000    62.14000000    46.76000000
   O     55.35000000    62.72000000    46.84000000
   C     54.52000000    60.10000000    48.27000000
   C     53.86000000    60.88000000    49.40000000
   O     52.80000000    61.50000000    49.19000000
   O     54.40000000    60.93000000    50.53000000
   H     55.83000000    59.55000000    46.28000000
   H     53.09000000    60.36000000    46.70000000
   H     55.59000000    60.20000000    48.40000000
   H     54.08000000    59.10000000    48.32000000
   N     53.11000000    62.78000000    46.58000000
   C     53.03000000    64.19000000    46.28000000
   C     52.70000000    64.89000000    47.59000000
   O     53.40000000    65.83000000    47.95000000
   C     52.06000000    64.39000000    45.13000000
   C     52.49000000    63.57000000    43.91000000
   C     52.14000000    65.87000000    44.77000000
   C     51.62000000    63.78000000    42.68000000
   H     52.30000000    62.21000000    46.39000000
   H     53.98000000    64.56000000    45.90000000
   H     51.01000000    64.20000000    45.37000000
   H     52.37000000    62.51000000    44.12000000
   H     53.51000000    63.83000000    43.62000000
   H     53.18000000    66.11000000    44.53000000
   H     51.54000000    66.14000000    43.91000000
   H     51.70000000    66.37000000    45.63000000
   H     51.77000000    64.77000000    42.25000000
   H     51.93000000    63.12000000    41.87000000
   H     50.56000000    63.64000000    42.91000000
   N     51.66000000    64.41000000    48.28000000
   C     51.20000000    65.14000000    49.45000000
   C     52.15000000    65.04000000    50.64000000
   O     52.13000000    65.96000000    51.46000000
   C     49.76000000    64.74000000    49.74000000
   C     49.52000000    63.27000000    50.06000000
   O     48.77000000    62.62000000    49.30000000
   O     50.20000000    62.65000000    50.91000000
   H     51.38000000    63.47000000    48.06000000
   H     51.25000000    66.20000000    49.20000000
   H     49.03000000    65.04000000    48.99000000
   H     49.48000000    65.35000000    50.60000000
   N     53.07000000    64.08000000    50.66000000
   C     54.11000000    63.87000000    51.65000000
   C     53.55000000    63.27000000    52.94000000
   O     53.88000000    63.64000000    54.07000000
   H     52.92000000    63.30000000    50.04000000
   H     54.52000000    64.84000000    51.96000000
   H     54.87000000    63.24000000    51.21000000
   N     52.82000000    62.17000000    52.78000000
   C     52.35000000    61.29000000    53.83000000
   C     53.05000000    59.94000000    53.87000000
   O     52.83000000    59.21000000    54.84000000
   C     50.83000000    61.18000000    53.92000000
   C     50.25000000    60.37000000    52.76000000
   O     49.02000000    60.18000000    52.78000000
   O     50.97000000    59.79000000    51.92000000
   H     52.68000000    61.92000000    51.81000000
   H     52.72000000    61.60000000    54.80000000
   H     50.32000000    62.14000000    53.87000000
   H     50.49000000    60.66000000    54.82000000
   N     53.84000000    59.53000000    52.88000000
   C     54.55000000    58.27000000    52.83000000
   C     53.76000000    57.16000000    52.16000000
   O     54.30000000    56.06000000    52.19000000
   H     54.12000000    60.20000000    52.17000000
   H     54.88000000    57.93000000    53.82000000
   H     55.43000000    58.46000000    52.22000000
   N     52.60000000    57.39000000    51.54000000
   C     51.84000000    56.45000000    50.74000000
   C     51.69000000    57.03000000    49.34000000
   O     51.75000000    58.23000000    49.10000000
   C     50.53000000    56.16000000    51.48000000
   C     50.64000000    55.44000000    52.82000000
   C     49.43000000    54.64000000    53.28000000
   N     48.47000000    55.17000000    54.04000000
   O     49.25000000    53.45000000    53.03000000
   H     52.31000000    58.36000000    51.57000000
   H     52.28000000    55.46000000    50.61000000
   H     49.97000000    55.52000000    50.80000000
   H     50.02000000    57.12000000    51.54000000
   H     50.78000000    56.26000000    53.53000000
   H     51.47000000    54.74000000    52.77000000
   H     48.51000000    56.14000000    54.32000000
   H     47.62000000    54.68000000    54.29000000
   N     51.39000000    56.10000000    48.43000000
   C     50.95000000    56.50000000    47.11000000
   C     49.51000000    56.08000000    46.88000000
   O     49.18000000    54.90000000    46.98000000
   C     51.92000000    55.93000000    46.08000000
   C     51.82000000    56.53000000    44.68000000
   C     53.36000000    56.21000000    46.48000000
   H     51.31000000    55.13000000    48.70000000
   H     51.01000000    57.59000000    47.00000000
   H     51.79000000    54.85000000    45.99000000
   H     52.08000000    57.58000000    44.66000000
   H     52.32000000    56.01000000    43.86000000
   H     50.74000000    56.55000000    44.51000000
   H     53.63000000    55.70000000    47.41000000
   H     54.00000000    55.76000000    45.72000000
   H     53.48000000    57.29000000    46.60000000
   N     48.62000000    57.08000000    46.86000000
   C     47.20000000    56.93000000    46.61000000
   C     46.98000000    56.76000000    45.11000000
   O     47.98000000    56.78000000    44.39000000
   C     46.49000000    58.12000000    47.26000000
   C     46.33000000    59.37000000    46.42000000
   N     46.45000000    60.55000000    47.03000000
   O     46.12000000    59.34000000    45.21000000
   H     48.95000000    58.03000000    46.89000000
   H     46.77000000    56.06000000    47.11000000
   H     46.87000000    58.39000000    48.25000000
   H     45.49000000    57.77000000    47.51000000
   H     46.53000000    60.60000000    48.03000000
   H     46.27000000    61.39000000    46.49000000
   N     45.75000000    56.68000000    44.60000000
   C     45.43000000    56.29000000    43.24000000
   C     45.66000000    57.51000000    42.35000000
   O     46.32000000    57.34000000    41.32000000
   C     44.12000000    55.56000000    43.00000000
   C     43.65000000    55.55000000    41.56000000
   C     44.36000000    54.64000000    40.77000000
   C     42.60000000    56.29000000    40.99000000
   C     43.94000000    54.47000000    39.45000000
   C     42.20000000    56.06000000    39.68000000
   C     42.88000000    55.16000000    38.83000000
   O     42.51000000    54.86000000    37.55000000
   H     44.97000000    57.06000000    45.11000000
   H     46.22000000    55.61000000    42.93000000
   H     43.36000000    56.03000000    43.62000000
   H     44.14000000    54.52000000    43.34000000
   H     45.19000000    54.10000000    41.20000000
   H     42.13000000    56.96000000    41.70000000
   H     44.54000000    53.85000000    38.79000000
   H     41.32000000    56.61000000    39.37000000
   H     41.70000000    55.31000000    37.28000000
   N     45.25000000    58.73000000    42.68000000
   C     45.41000000    59.93000000    41.87000000
   C     46.85000000    60.41000000    41.78000000
   O     47.26000000    61.06000000    40.82000000
   C     44.49000000    61.07000000    42.27000000
   C     43.05000000    60.84000000    41.81000000
   C     42.09000000    60.52000000    42.95000000
   O     40.98000000    61.09000000    43.03000000
   O     42.46000000    59.80000000    43.90000000
   H     44.80000000    58.90000000    43.57000000
   H     45.09000000    59.68000000    40.86000000
   H     44.75000000    62.03000000    41.82000000
   H     44.49000000    61.16000000    43.36000000
   H     42.98000000    59.98000000    41.15000000
   H     42.68000000    61.73000000    41.31000000
   N     47.66000000    60.02000000    42.78000000
   C     49.10000000    60.14000000    42.77000000
   C     49.77000000    59.18000000    41.80000000
   O     50.58000000    59.57000000    40.95000000
   C     49.66000000    59.92000000    44.17000000
   C     49.45000000    61.17000000    45.03000000
   C     49.96000000    60.92000000    46.44000000
   O     50.59000000    61.79000000    47.08000000
   O     49.65000000    59.91000000    47.11000000
   H     47.26000000    59.58000000    43.60000000
   H     49.31000000    61.15000000    42.43000000
   H     50.73000000    59.70000000    44.18000000
   H     49.08000000    59.10000000    44.60000000
   H     48.42000000    61.52000000    45.07000000
   H     50.06000000    61.94000000    44.57000000
   N     49.42000000    57.89000000    41.84000000
   C     49.69000000    56.93000000    40.79000000
   H     50.71300000    56.56600000    40.88600000
   H     48.99700000    56.09300000    40.87500000
   H     49.56500000    57.40800000    39.81900000
   H     48.79000000    57.62000000    42.58000000
  Ca     50.43000000    60.43000000    49.48000000
   O     48.22000000    59.31000000    50.30000000
   H     47.43000000    59.81000000    50.09000000
   H     48.29000000    59.36000000    51.26000000

Ca 1.70



