%chk=loop2.cluster142.chk
%nprocshared=48
%mem=10GB
%nosave
#b3lyp/svp scf=(tight,noincore) Test 
#IOP(5/87=12) Density=Current Pop=(MK,readradii) iop(6/33=2) iop(6/42=6)

loop2.cluster142 

   -2  1 
   C     83.71000000   105.08000000    -9.30000000
   C     83.87000000   106.49000000    -8.75000000
   O     84.58000000   106.74000000    -7.78000000
   H     82.88200000   105.05900000   -10.00800000
   H     84.62800000   104.78000000    -9.80600000
   H     83.50400000   104.39100000    -8.48100000
   N     83.24000000   107.39000000    -9.50000000
   C     82.87000000   108.71000000    -9.04000000
   C     81.64000000   109.28000000    -9.73000000
   O     80.64000000   109.54000000    -9.05000000
   C     84.09000000   109.62000000    -9.19000000
   C     83.76000000   111.08000000    -8.92000000
   O     83.54000000   111.52000000    -7.78000000
   O     83.82000000   111.91000000    -9.85000000
   H     82.77000000   107.03000000   -10.32000000
   H     82.57000000   108.60000000    -8.00000000
   H     84.42000000   109.57000000   -10.23000000
   H     84.83000000   109.34000000    -8.44000000
   N     81.76000000   109.59000000   -11.02000000
   C     80.84000000   110.22000000   -11.93000000
   C     79.44000000   109.62000000   -11.88000000
   O     78.43000000   110.28000000   -12.13000000
   C     80.89000000   111.72000000   -11.66000000
   H     82.69000000   109.33000000   -11.32000000
   H     81.18000000   110.06000000   -12.96000000
   H     81.90000000   112.09000000   -11.83000000
   H     80.21000000   112.18000000   -12.37000000
   H     80.47000000   111.90000000   -10.67000000
   N     79.32000000   108.32000000   -11.62000000
   C     78.07000000   107.59000000   -11.62000000
   C     76.92000000   108.15000000   -10.79000000
   O     75.78000000   107.79000000   -11.10000000
   C     77.75000000   107.01000000   -13.00000000
   C     78.85000000   106.15000000   -13.61000000
   O     79.39000000   106.51000000   -14.68000000
   O     79.27000000   105.10000000   -13.09000000
   H     80.21000000   107.85000000   -11.52000000
   H     78.25000000   106.66000000   -11.09000000
   H     77.54000000   107.83000000   -13.69000000
   H     76.89000000   106.33000000   -12.96000000
   N     77.23000000   108.98000000    -9.80000000
   C     76.21000000   109.53000000    -8.92000000
   C     75.34000000   108.57000000    -8.12000000
   O     75.82000000   107.56000000    -7.62000000
   H     78.20000000   109.23000000    -9.66000000
   H     75.68000000   110.21000000    -9.58000000
   H     76.74000000   110.14000000    -8.19000000
   N     74.05000000   108.88000000    -7.92000000
   C     73.06000000   108.05000000    -7.28000000
   C     73.56000000   107.49000000    -5.96000000
   O     73.62000000   106.29000000    -5.70000000
   C     72.52000000   106.96000000    -8.20000000
   C     71.81000000   107.38000000    -9.48000000
   N     72.36000000   106.96000000   -10.62000000
   O     70.78000000   108.05000000    -9.56000000
   H     73.62000000   109.73000000    -8.25000000
   H     72.19000000   108.64000000    -6.98000000
   H     71.71000000   106.40000000    -7.72000000
   H     73.30000000   106.26000000    -8.50000000
   H     73.06000000   106.23000000   -10.59000000
   H     71.98000000   107.27000000   -11.51000000
   N     74.02000000   108.34000000    -5.04000000
   C     74.52000000   107.86000000    -3.76000000
   C     75.95000000   107.34000000    -3.71000000
   O     76.56000000   107.50000000    -2.66000000
   H     74.01000000   109.33000000    -5.24000000
   H     73.83000000   107.06000000    -3.47000000
   H     74.45000000   108.64000000    -3.01000000
   N     76.57000000   106.96000000    -4.83000000
   C     77.90000000   106.40000000    -4.90000000
   C     77.88000000   104.88000000    -4.95000000
   O     76.94000000   104.28000000    -5.47000000
   C     78.70000000   106.96000000    -6.07000000
   C     78.84000000   108.48000000    -6.16000000
   O     80.09000000   106.70000000    -6.02000000
   H     75.96000000   106.96000000    -5.64000000
   H     78.38000000   106.73000000    -3.97000000
   H     78.28000000   106.78000000    -7.06000000
   H     80.13000000   105.79000000    -6.32000000
   H     79.17000000   108.93000000    -5.23000000
   H     79.57000000   108.79000000    -6.91000000
   H     77.82000000   108.82000000    -6.28000000
   N     78.92000000   104.27000000    -4.37000000
   C     79.22000000   102.91000000    -4.77000000
   C     79.57000000   102.84000000    -6.25000000
   O     79.99000000   103.83000000    -6.83000000
   C     80.40000000   102.40000000    -3.95000000
   C     81.72000000   103.11000000    -4.19000000
   C     80.00000000   102.59000000    -2.49000000
   C     82.88000000   102.65000000    -3.31000000
   H     79.63000000   104.74000000    -3.82000000
   H     78.37000000   102.26000000    -4.58000000
   H     80.59000000   101.37000000    -4.26000000
   H     81.65000000   104.19000000    -4.16000000
   H     82.00000000   102.93000000    -5.23000000
   H     80.03000000   103.62000000    -2.14000000
   H     78.97000000   102.24000000    -2.35000000
   H     80.56000000   101.95000000    -1.82000000
   H     83.83000000   103.09000000    -3.63000000
   H     82.72000000   102.89000000    -2.26000000
   H     83.05000000   101.57000000    -3.37000000
   N     79.07000000   101.76000000    -6.86000000
   C     78.61000000   101.76000000    -8.23000000
   C     77.30000000   101.01000000    -8.46000000
   O     77.08000000    99.95000000    -7.87000000
   C     79.74000000   101.30000000    -9.15000000
   C     79.42000000   101.71000000   -10.58000000
   O     79.55000000   100.85000000   -11.47000000
   O     79.06000000   102.86000000   -10.93000000
   H     78.82000000   100.93000000    -6.33000000
   H     78.34000000   102.78000000    -8.49000000
   H     79.74000000   100.21000000    -9.09000000
   H     80.69000000   101.70000000    -8.79000000
   N     76.37000000   101.56000000    -9.25000000
   C     75.19000000   100.81000000    -9.59000000
   C     73.93000000   101.66000000    -9.72000000
   O     73.61000000   102.04000000   -10.84000000
   C     75.47000000    99.98000000   -10.84000000
   C     74.34000000    99.16000000   -11.40000000
   C     73.75000000    99.42000000   -12.65000000
   C     73.92000000    98.12000000   -10.56000000
   C     72.66000000    98.61000000   -12.99000000
   C     73.02000000    97.16000000   -11.03000000
   C     72.35000000    97.48000000   -12.22000000
   H     76.47000000   102.55000000    -9.45000000
   H     74.94000000   100.05000000    -8.85000000
   H     76.33000000    99.34000000   -10.62000000
   H     75.90000000   100.66000000   -11.58000000
   H     74.09000000   100.21000000   -13.30000000
   H     74.22000000    98.15000000    -9.52000000
   H     72.13000000    98.80000000   -13.91000000
   H     72.82000000    96.25000000   -10.47000000
   H     71.62000000    96.77000000   -12.55000000
   N     73.44000000   102.14000000    -8.58000000
   C     74.03000000   102.03000000    -7.26000000
   C     73.84000000   100.67000000    -6.61000000
   O     72.82000000   100.00000000    -6.72000000
   C     73.47000000   103.14000000    -6.37000000
   C     72.15000000   103.42000000    -7.08000000
   C     72.38000000   103.14000000    -8.56000000
   H     75.08000000   102.26000000    -7.13000000
   H     73.37000000   102.84000000    -5.33000000
   H     74.18000000   103.97000000    -6.46000000
   H     71.35000000   102.79000000    -6.70000000
   H     71.84000000   104.46000000    -6.96000000
   H     71.46000000   102.81000000    -9.04000000
   H     72.75000000   104.09000000    -8.94000000
   N     74.83000000   100.16000000    -5.87000000
   C     74.69000000    98.91000000    -5.15000000
   C     75.53000000    98.99000000    -3.88000000
   O     76.71000000    99.32000000    -3.84000000
   C     75.14000000    97.75000000    -6.03000000
   C     75.06000000    96.42000000    -5.29000000
   C     73.61000000    96.11000000    -4.95000000
   O     72.76000000    95.92000000    -5.85000000
   O     73.22000000    96.08000000    -3.76000000
   H     75.68000000   100.67000000    -5.68000000
   H     73.62000000    98.83000000    -4.96000000
   H     76.18000000    97.88000000    -6.32000000
   H     74.50000000    97.69000000    -6.91000000
   H     75.59000000    96.49000000    -4.34000000
   H     75.42000000    95.53000000    -5.81000000
   N     74.87000000    98.70000000    -2.76000000
   C     75.28000000    98.89000000    -1.38000000
   H     76.13300000    99.56700000    -1.34500000
   H     74.45400000    99.31700000    -0.81100000
   H     75.56100000    97.92900000    -0.94800000
   H     73.88000000    98.54000000    -2.89000000
  Ca     79.57000000   102.47400000   -13.50400000
   O     78.55000000   100.57400000   -15.20400000
   H     78.40000000   100.68400000   -16.14400000
   H     78.68000000    99.62400000   -15.10400000
   O     81.16000000   100.32400000   -13.84400000
   H     81.91000000   100.20400000   -13.25400000
   H     80.97000000    99.44400000   -14.17400000
   O     78.51000000   103.84400000   -15.59400000
   H     78.88000000   104.72400000   -15.68400000
   H     77.58000000   103.98400000   -15.40400000
   O     76.91000000   102.55400000   -13.32400000
   H     76.29000000   102.28400000   -12.65400000
   H     76.42000000   103.17400000   -13.86400000

Ca 1.70



