%chk=loop3.cluster9.chk
%nprocshared=48
%mem=10GB
%nosave
#b3lyp/svp scf=(tight,noincore) Test 
#IOP(5/87=12) Density=Current Pop=(MK,readradii) iop(6/33=2) iop(6/42=6)

loop3.cluster9 

   0  1 
   C     22.91000000    49.40000000    18.06000000
   C     24.21000000    49.11000000    17.33000000
   O     24.41000000    49.68000000    16.26000000
   H     22.11300000    48.78700000    17.63900000
   H     23.02700000    49.16600000    19.11800000
   H     22.65600000    50.45400000    17.94600000
   N     25.12000000    48.31000000    17.87000000
   C     26.41000000    48.02000000    17.27000000
   C     26.23000000    47.16000000    16.03000000
   O     25.78000000    46.02000000    16.12000000
   C     27.36000000    47.48000000    18.33000000
   C     28.74000000    47.03000000    17.85000000
   O     29.12000000    47.16000000    16.67000000
   O     29.52000000    46.54000000    18.69000000
   H     25.00000000    47.82000000    18.75000000
   H     26.78000000    48.99000000    16.93000000
   H     26.90000000    46.64000000    18.84000000
   H     27.58000000    48.20000000    19.12000000
   N     26.40000000    47.75000000    14.84000000
   C     25.93000000    47.22000000    13.58000000
   C     26.74000000    46.02000000    13.10000000
   O     26.27000000    45.32000000    12.20000000
   C     25.90000000    48.33000000    12.53000000
   C     25.16000000    48.01000000    11.23000000
   C     25.34000000    49.14000000    10.22000000
   C     24.44000000    49.01000000     8.99000000
   N     24.57000000    50.02000000     7.94000000
   H     26.83000000    48.66000000    14.95000000
   H     24.88000000    46.98000000    13.72000000
   H     26.94000000    48.55000000    12.30000000
   H     25.41000000    49.16000000    13.02000000
   H     24.11000000    47.94000000    11.52000000
   H     25.42000000    47.06000000    10.75000000
   H     26.39000000    49.17000000     9.95000000
   H     25.20000000    50.11000000    10.69000000
   H     23.44000000    48.82000000     9.38000000
   H     24.60000000    48.03000000     8.53000000
   H     25.36000000    49.91000000     7.32000000
   H     23.78000000    50.10000000     7.31000000
   H     24.62000000    50.96000000     8.31000000
   N     27.99000000    45.90000000    13.54000000
   C     28.83000000    44.76000000    13.21000000
   C     29.38000000    44.05000000    14.44000000
   O     30.02000000    43.02000000    14.23000000
   C     30.01000000    45.27000000    12.39000000
   C     30.91000000    46.33000000    13.01000000
   O     30.73000000    46.68000000    14.20000000
   O     31.93000000    46.74000000    12.43000000
   H     28.29000000    46.59000000    14.21000000
   H     28.29000000    43.97000000    12.70000000
   H     29.62000000    45.80000000    11.52000000
   H     30.63000000    44.44000000    12.03000000
   N     29.18000000    44.52000000    15.67000000
   C     29.54000000    43.79000000    16.87000000
   C     31.01000000    43.99000000    17.19000000
   O     31.59000000    43.04000000    17.71000000
   H     28.96000000    45.50000000    15.78000000
   H     29.24000000    42.75000000    16.74000000
   H     28.87000000    44.14000000    17.66000000
   N     31.65000000    45.12000000    16.88000000
   C     33.08000000    45.32000000    16.95000000
   C     33.38000000    45.80000000    18.36000000
   O     34.55000000    46.12000000    18.59000000
   C     33.70000000    46.18000000    15.85000000
   C     33.46000000    47.67000000    16.02000000
   N     34.26000000    48.55000000    15.42000000
   O     32.47000000    48.11000000    16.61000000
   H     31.08000000    45.75000000    16.32000000
   H     33.47000000    44.31000000    16.83000000
   H     33.34000000    45.90000000    14.86000000
   H     34.79000000    46.07000000    15.80000000
   H     35.09000000    48.25000000    14.94000000
   H     33.98000000    49.52000000    15.44000000
   N     32.47000000    46.10000000    19.28000000
   C     32.63000000    46.77000000    20.56000000
   C     32.46000000    48.29000000    20.55000000
   O     32.67000000    48.89000000    21.59000000
   H     31.49000000    45.93000000    19.10000000
   H     33.64000000    46.64000000    20.93000000
   H     31.92000000    46.52000000    21.34000000
   N     32.02000000    48.84000000    19.41000000
   C     31.92000000    50.28000000    19.29000000
   C     30.71000000    50.74000000    18.49000000
   O     30.08000000    49.88000000    17.88000000
   C     33.15000000    50.91000000    18.63000000
   C     34.50000000    50.68000000    19.27000000
   C     34.97000000    51.56000000    20.25000000
   C     35.14000000    49.47000000    18.98000000
   C     36.09000000    51.14000000    20.98000000
   C     36.23000000    49.05000000    19.75000000
   C     36.76000000    49.93000000    20.72000000
   O     37.94000000    49.66000000    21.35000000
   H     31.85000000    48.27000000    18.59000000
   H     31.92000000    50.67000000    20.31000000
   H     32.91000000    51.97000000    18.56000000
   H     33.25000000    50.56000000    17.61000000
   H     34.46000000    52.47000000    20.52000000
   H     34.67000000    48.82000000    18.25000000
   H     36.60000000    51.75000000    21.71000000
   H     36.73000000    48.12000000    19.55000000
   H     38.39000000    50.38000000    21.78000000
   N     30.43000000    52.04000000    18.49000000
   C     29.34000000    52.73000000    17.84000000
   C     29.79000000    54.07000000    17.28000000
   O     30.51000000    54.81000000    17.95000000
   C     28.23000000    52.93000000    18.87000000
   C     27.96000000    51.87000000    19.93000000
   C     26.93000000    53.27000000    18.14000000
   C     26.86000000    52.07000000    20.97000000
   H     30.87000000    52.57000000    19.23000000
   H     28.96000000    52.16000000    17.00000000
   H     28.51000000    53.85000000    19.39000000
   H     28.84000000    51.86000000    20.57000000
   H     27.91000000    50.87000000    19.51000000
   H     27.02000000    54.14000000    17.49000000
   H     26.55000000    52.54000000    17.42000000
   H     26.09000000    53.41000000    18.81000000
   H     26.74000000    53.13000000    21.23000000
   H     25.94000000    51.72000000    20.50000000
   H     26.94000000    51.46000000    21.87000000
   N     29.30000000    54.40000000    16.08000000
   C     29.57000000    55.66000000    15.42000000
   C     28.30000000    56.31000000    14.89000000
   O     27.26000000    55.66000000    14.87000000
   C     30.60000000    55.45000000    14.31000000
   O     30.05000000    54.72000000    13.24000000
   H     28.64000000    53.78000000    15.64000000
   H     29.98000000    56.35000000    16.16000000
   H     31.47000000    54.92000000    14.69000000
   H     30.89000000    56.45000000    13.99000000
   H     29.97000000    55.39000000    12.55000000
   N     28.39000000    57.58000000    14.48000000
   C     27.24000000    58.29000000    13.97000000
   C     26.34000000    57.52000000    13.02000000
   O     25.13000000    57.52000000    13.23000000
   C     27.56000000    59.65000000    13.36000000
   H     29.30000000    58.03000000    14.50000000
   H     26.63000000    58.37000000    14.87000000
   H     28.34000000    59.54000000    12.60000000
   H     26.68000000    60.02000000    12.83000000
   H     27.84000000    60.31000000    14.18000000
   N     26.84000000    56.93000000    11.93000000
   C     25.93000000    56.22000000    11.06000000
   C     25.21000000    55.01000000    11.65000000
   O     24.09000000    54.69000000    11.26000000
   C     26.71000000    55.74000000     9.85000000
   H     27.80000000    57.08000000    11.64000000
   H     25.12000000    56.87000000    10.72000000
   H     25.98000000    55.38000000     9.12000000
   H     27.21000000    56.55000000     9.33000000
   H     27.42000000    54.97000000    10.17000000
   N     25.90000000    54.27000000    12.52000000
   C     25.26000000    53.21000000    13.26000000
   C     24.20000000    53.81000000    14.17000000
   O     23.23000000    53.11000000    14.45000000
   C     26.20000000    52.42000000    14.17000000
   C     27.40000000    51.78000000    13.48000000
   C     28.38000000    51.19000000    14.48000000
   O     28.05000000    50.20000000    15.17000000
   O     29.52000000    51.68000000    14.62000000
   H     26.79000000    54.60000000    12.88000000
   H     24.82000000    52.55000000    12.51000000
   H     25.66000000    51.58000000    14.60000000
   H     26.59000000    53.14000000    14.89000000
   H     27.91000000    52.54000000    12.90000000
   H     26.95000000    51.00000000    12.87000000
   N     24.32000000    55.00000000    14.77000000
   C     23.19000000    55.67000000    15.36000000
   H     22.33200000    54.99800000    15.36500000
   H     23.43100000    55.95800000    16.38300000
   H     22.95000000    56.56000000    14.77800000
   H     25.07000000    55.58000000    14.42000000
  Ca     30.29000000    49.02000000    15.45000000
   O     31.77000000    51.40000000    15.83000000
   H     31.14000000    51.86000000    15.28000000
   H     32.39000000    52.08000000    16.10000000
   O     32.18000000    49.21000000    13.68000000
   H     32.18000000    49.90000000    13.01000000
   H     32.38000000    48.41000000    13.20000000
   O     29.46000000    48.90000000    12.75000000
   H     29.66000000    48.07000000    12.31000000
   H     30.00000000    49.55000000    12.31000000

Ca 1.70



