%chk=loop3.cluster60.chk
%nprocshared=48
%mem=10GB
%nosave
#b3lyp/svp scf=(tight,noincore) Test 
#IOP(5/87=12) Density=Current Pop=(MK,readradii) iop(6/33=2) iop(6/42=6)

loop3.cluster60 

   0  1 
   C     95.97000000    45.68000000   102.24000000
   C     97.39000000    46.05000000   101.83000000
   O     97.52000000    46.40000000   100.66000000
   H     95.29200000    45.86400000   101.40700000
   H     95.93300000    44.62500000   102.51100000
   H     95.66800000    46.28600000   103.09400000
   N     98.39000000    46.00000000   102.71000000
   C     99.74000000    46.43000000   102.41000000
   C    100.87000000    45.76000000   103.17000000
   O    100.69000000    44.82000000   103.94000000
   C     99.89000000    47.92000000   102.69000000
   C     99.50000000    48.40000000   104.08000000
   O    100.09000000    49.45000000   104.43000000
   O     98.64000000    47.83000000   104.79000000
   H     98.27000000    45.73000000   103.68000000
   H     99.95000000    46.31000000   101.34000000
   H     99.27000000    48.48000000   101.98000000
   H    100.90000000    48.25000000   102.45000000
   N    102.11000000    46.15000000   102.84000000
   C    103.31000000    45.75000000   103.54000000
   C    104.12000000    44.69000000   102.80000000
   O    104.91000000    44.01000000   103.46000000
   C    104.21000000    46.96000000   103.74000000
   C    103.57000000    48.09000000   104.54000000
   C    104.47000000    49.31000000   104.71000000
   C    103.92000000    50.40000000   105.62000000
   N    102.67000000    51.00000000   105.13000000
   H    102.19000000    46.64000000   101.96000000
   H    103.09000000    45.18000000   104.44000000
   H    104.59000000    47.38000000   102.81000000
   H    105.10000000    46.61000000   104.27000000
   H    103.14000000    47.75000000   105.49000000
   H    102.80000000    48.45000000   103.85000000
   H    104.65000000    49.84000000   103.78000000
   H    105.45000000    48.94000000   105.03000000
   H    104.66000000    51.18000000   105.80000000
   H    103.87000000    49.92000000   106.60000000
   H    102.68000000    51.59000000   104.31000000
   H    101.97000000    50.28000000   104.98000000
   H    102.23000000    51.63000000   105.78000000
   N    103.99000000    44.54000000   101.48000000
   C    104.68000000    43.49000000   100.76000000
   C    105.25000000    43.84000000    99.39000000
   O    106.24000000    43.25000000    98.96000000
   C    103.68000000    42.36000000   100.56000000
   C    102.29000000    42.77000000   100.08000000
   O    102.11000000    43.81000000    99.41000000
   O    101.38000000    42.07000000   100.56000000
   H    103.21000000    45.05000000   101.08000000
   H    105.51000000    43.09000000   101.34000000
   H    103.72000000    41.83000000   101.51000000
   H    104.07000000    41.70000000    99.79000000
   N    104.83000000    45.00000000    98.88000000
   C    105.16000000    45.68000000    97.64000000
   C    103.91000000    46.18000000    96.93000000
   O    102.78000000    46.01000000    97.37000000
   H    104.33000000    45.57000000    99.54000000
   H    105.70000000    44.96000000    97.02000000
   H    105.87000000    46.50000000    97.77000000
   N    103.99000000    47.02000000    95.89000000
   C    105.16000000    47.40000000    95.13000000
   C    104.72000000    47.51000000    93.67000000
   O    103.80000000    48.25000000    93.35000000
   C    105.77000000    48.70000000    95.65000000
   C    107.09000000    48.97000000    94.96000000
   N    107.45000000    50.25000000    94.88000000
   O    107.90000000    48.12000000    94.57000000
   H    103.09000000    47.36000000    95.57000000
   H    105.87000000    46.58000000    95.20000000
   H    105.96000000    48.56000000    96.72000000
   H    105.10000000    49.54000000    95.48000000
   H    106.75000000    50.89000000    95.24000000
   H    108.31000000    50.47000000    94.40000000
   N    105.41000000    46.90000000    92.70000000
   C    106.26000000    45.73000000    92.81000000
   C    105.42000000    44.51000000    93.16000000
   O    104.74000000    44.45000000    94.18000000
   H    104.95000000    46.86000000    91.80000000
   H    107.00000000    45.83000000    93.61000000
   H    106.79000000    45.55000000    91.88000000
   N    105.53000000    43.44000000    92.37000000
   C    104.83000000    42.18000000    92.46000000
   C    105.80000000    41.01000000    92.64000000
   O    107.00000000    41.06000000    92.39000000
   C    103.94000000    42.00000000    91.23000000
   C    102.87000000    43.03000000    90.96000000
   C    101.70000000    42.97000000    91.72000000
   C    103.05000000    43.97000000    89.94000000
   C    100.67000000    43.84000000    91.35000000
   C    102.08000000    44.94000000    89.68000000
   C    100.89000000    44.89000000    90.43000000
   O     99.95000000    45.86000000    90.26000000
   H    106.16000000    43.58000000    91.59000000
   H    104.15000000    42.22000000    93.31000000
   H    103.52000000    41.00000000    91.30000000
   H    104.58000000    42.05000000    90.35000000
   H    101.61000000    42.38000000    92.62000000
   H    104.03000000    43.98000000    89.47000000
   H     99.73000000    43.78000000    91.87000000
   H    102.20000000    45.68000000    88.90000000
   H    100.31000000    46.63000000    89.80000000
   N    105.29000000    39.92000000    93.21000000
   C    105.90000000    38.61000000    93.31000000
   C    105.33000000    37.68000000    92.24000000
   O    106.07000000    36.98000000    91.55000000
   C    105.80000000    38.08000000    94.74000000
   C    104.39000000    37.85000000    95.27000000
   C    106.64000000    36.81000000    94.88000000
   C    104.39000000    37.41000000    96.73000000
   H    104.33000000    39.96000000    93.52000000
   H    106.96000000    38.69000000    93.10000000
   H    106.21000000    38.77000000    95.47000000
   H    103.79000000    37.11000000    94.73000000
   H    103.92000000    38.83000000    95.29000000
   H    106.05000000    35.90000000    94.79000000
   H    107.41000000    36.76000000    94.12000000
   H    107.09000000    36.90000000    95.87000000
   H    105.05000000    38.07000000    97.31000000
   H    103.37000000    37.48000000    97.11000000
   H    104.83000000    36.45000000    97.00000000
   N    104.01000000    37.75000000    92.04000000
   C    103.27000000    37.25000000    90.91000000
   C    102.28000000    36.10000000    91.09000000
   O    101.70000000    35.61000000    90.12000000
   C    102.43000000    38.39000000    90.34000000
   O    101.46000000    38.81000000    91.27000000
   H    103.52000000    38.48000000    92.54000000
   H    103.95000000    37.01000000    90.10000000
   H    101.94000000    38.13000000    89.40000000
   H    103.12000000    39.18000000    90.06000000
   H    101.89000000    39.19000000    92.04000000
   N    102.02000000    35.68000000    92.33000000
   C    101.06000000    34.64000000    92.62000000
   C    100.65000000    34.68000000    94.09000000
   O    101.46000000    35.00000000    94.95000000
   C    101.59000000    33.25000000    92.28000000
   H    102.59000000    36.05000000    93.08000000
   H    100.19000000    34.90000000    92.02000000
   H    102.06000000    33.31000000    91.30000000
   H    102.36000000    32.96000000    93.00000000
   H    100.72000000    32.59000000    92.25000000
   N     99.47000000    34.18000000    94.46000000
   C     98.81000000    34.30000000    95.74000000
   C     98.88000000    35.75000000    96.20000000
   O     99.27000000    35.99000000    97.34000000
   C     99.31000000    33.24000000    96.72000000
   H     98.90000000    33.79000000    93.72000000
   H     97.77000000    34.04000000    95.56000000
   H     99.27000000    32.28000000    96.20000000
   H    100.38000000    33.43000000    96.87000000
   H     98.74000000    33.22000000    97.65000000
   N     98.64000000    36.75000000    95.35000000
   C     98.52000000    38.14000000    95.74000000
   C     97.07000000    38.62000000    95.72000000
   O     96.64000000    39.31000000    96.64000000
   C     99.43000000    39.07000000    94.95000000
   C    100.94000000    38.84000000    95.03000000
   C    101.73000000    39.95000000    94.36000000
   O    101.74000000    41.05000000    94.95000000
   O    102.44000000    39.78000000    93.34000000
   H     98.42000000    36.40000000    94.42000000
   H     98.77000000    38.20000000    96.79000000
   H     99.27000000    40.12000000    95.16000000
   H     99.33000000    39.03000000    93.86000000
   H    101.15000000    37.86000000    94.59000000
   H    101.17000000    38.68000000    96.09000000
   N     96.29000000    38.28000000    94.70000000
   C     95.02000000    38.91000000    94.38000000
   H     94.28500000    38.65400000    95.14300000
   H     95.14800000    39.99200000    94.34900000
   H     94.67300000    38.55600000    93.40900000
   H     96.59000000    37.54000000    94.07000000
  Ca    100.62600000    44.21000000    97.54000000
   O     98.97000000    42.85000000    99.39000000
   H     98.22000000    42.36000000    99.72000000
   H     99.72000000    42.47000000    99.85000000
   O    101.17600000    41.58000000    97.57000000
   H    101.56600000    41.26000000    96.75000000
   H    101.01600000    40.78000000    98.08000000
   O     99.79600000    43.05000000    95.22000000
   H    100.38600000    42.30000000    95.10000000
   H     99.06600000    42.88000000    94.61000000
   O     99.72600000    46.30000000    98.94000000
   H     99.02600000    46.48000000    99.57000000
   H    100.14600000    47.15000000    98.80000000
   O    102.57600000    43.46000000    95.58000000
   H    103.10600000    43.92000000    94.93000000
   H    102.41600000    42.60000000    95.20000000
   O    100.30600000    46.12000000    95.78000000
   H     99.63600000    46.54000000    95.24000000
   H    101.10600000    46.61000000    95.59000000
   O     97.99000000    44.91000000    97.17000000
   H     97.32000000    45.41000000    97.64000000
   H     97.66000000    44.85000000    96.28000000

Ca 1.70



