%chk=loop4.cluster66.chk
%nprocshared=48
%mem=10GB
%nosave
#b3lyp/svp scf=(tight,noincore) Test 
#IOP(5/87=12) Density=Current Pop=(MK,readradii) iop(6/33=2) iop(6/42=6)

loop4.cluster66 

   -3  1 
   C     80.73000000    47.20000000    82.29000000
   C     81.83000000    46.15000000    82.13000000
   O     82.54000000    46.23000000    81.14000000
   H     79.84500000    46.73500000    82.72400000
   H     81.08000000    47.99600000    82.94700000
   H     80.48000000    47.61700000    81.31400000
   N     81.85000000    45.12000000    82.98000000
   C     82.81000000    44.04000000    83.03000000
   C     84.26000000    44.48000000    83.11000000
   O     85.12000000    43.86000000    82.49000000
   C     82.46000000    43.02000000    81.95000000
   C     81.00000000    42.59000000    81.92000000
   O     80.80000000    41.35000000    81.86000000
   O     79.99000000    43.32000000    82.03000000
   H     81.12000000    45.08000000    83.68000000
   H     82.61000000    43.54000000    83.98000000
   H     83.00000000    42.13000000    82.27000000
   H     82.75000000    43.37000000    80.96000000
   N     84.52000000    45.52000000    83.91000000
   C     85.78000000    45.99000000    84.45000000
   C     85.79000000    45.65000000    85.93000000
   O     84.95000000    46.23000000    86.62000000
   C     86.07000000    47.47000000    84.22000000
   C     86.25000000    47.73000000    82.73000000
   C     87.29000000    48.04000000    84.94000000
   C     87.25000000    46.90000000    81.93000000
   H     83.68000000    45.90000000    84.32000000
   H     86.54000000    45.42000000    83.92000000
   H     85.17000000    48.02000000    84.48000000
   H     86.55000000    48.75000000    82.48000000
   H     85.32000000    47.60000000    82.17000000
   H     87.25000000    49.13000000    84.88000000
   H     87.31000000    47.70000000    85.97000000
   H     88.21000000    47.81000000    84.40000000
   H     86.87000000    45.87000000    81.92000000
   H     87.26000000    47.35000000    80.93000000
   H     88.21000000    47.00000000    82.42000000
   N     86.55000000    44.70000000    86.49000000
   C     87.37000000    43.65000000    85.93000000
   C     86.65000000    42.41000000    85.41000000
   O     87.12000000    41.74000000    84.49000000
   C     88.42000000    43.23000000    86.95000000
   C     89.13000000    44.32000000    87.74000000
   O     90.25000000    44.67000000    87.30000000
   O     88.68000000    44.76000000    88.82000000
   H     86.51000000    44.55000000    87.48000000
   H     87.92000000    44.15000000    85.13000000
   H     89.18000000    42.62000000    86.47000000
   H     87.93000000    42.63000000    87.71000000
   N     85.45000000    42.15000000    85.92000000
   C     84.52000000    41.12000000    85.48000000
   C     85.04000000    39.70000000    85.61000000
   O     85.56000000    39.33000000    86.66000000
   H     85.16000000    42.61000000    86.77000000
   H     84.21000000    41.38000000    84.46000000
   H     83.65000000    41.17000000    86.12000000
   N     85.03000000    38.97000000    84.50000000
   C     85.69000000    37.70000000    84.26000000
   C     86.76000000    37.72000000    83.18000000
   O     87.35000000    36.68000000    82.88000000
   C     84.69000000    36.58000000    83.97000000
   C     83.95000000    36.78000000    82.66000000
   O     83.94000000    37.85000000    82.02000000
   O     83.18000000    35.85000000    82.35000000
   H     84.61000000    39.31000000    83.65000000
   H     86.24000000    37.44000000    85.17000000
   H     83.92000000    36.50000000    84.74000000
   H     85.25000000    35.65000000    83.99000000
   N     86.89000000    38.89000000    82.55000000
   C     87.77000000    39.01000000    81.40000000
   C     87.13000000    38.83000000    80.04000000
   O     87.84000000    39.07000000    79.07000000
   H     86.37000000    39.72000000    82.81000000
   H     88.61000000    38.32000000    81.46000000
   H     88.27000000    39.98000000    81.40000000
   N     85.88000000    38.35000000    79.94000000
   C     85.16000000    37.99000000    78.74000000
   C     85.07000000    39.20000000    77.83000000
   O     85.47000000    39.13000000    76.67000000
   C     85.74000000    36.74000000    78.07000000
   C     85.83000000    35.52000000    78.97000000
   C     86.49000000    34.27000000    78.40000000
   N     85.96000000    33.10000000    78.76000000
   O     87.50000000    34.30000000    77.70000000
   H     85.35000000    38.42000000    80.79000000
   H     84.14000000    37.69000000    79.00000000
   H     86.76000000    36.97000000    77.77000000
   H     85.09000000    36.48000000    77.23000000
   H     84.85000000    35.28000000    79.38000000
   H     86.49000000    35.74000000    79.80000000
   H     85.15000000    33.06000000    79.36000000
   H     86.49000000    32.27000000    78.56000000
   N     84.54000000    40.36000000    78.25000000
   C     84.38000000    41.57000000    77.47000000
   C     83.21000000    41.37000000    76.52000000
   O     82.11000000    41.00000000    76.94000000
   C     84.41000000    42.89000000    78.23000000
   C     85.84000000    43.04000000    78.76000000
   C     84.20000000    44.06000000    77.27000000
   H     84.26000000    40.27000000    79.22000000
   H     85.30000000    41.48000000    76.90000000
   H     83.69000000    42.98000000    79.05000000
   H     86.53000000    43.03000000    77.92000000
   H     85.90000000    44.04000000    79.19000000
   H     85.94000000    42.25000000    79.50000000
   H     84.43000000    45.05000000    77.66000000
   H     84.82000000    43.86000000    76.39000000
   H     83.15000000    44.04000000    77.01000000
   N     83.48000000    41.58000000    75.23000000
   C     82.47000000    41.50000000    74.19000000
   C     81.86000000    42.86000000    73.87000000
   O     82.57000000    43.83000000    73.63000000
   C     83.04000000    40.80000000    72.96000000
   C     82.23000000    40.72000000    71.68000000
   N     80.91000000    40.59000000    71.85000000
   O     82.72000000    40.76000000    70.55000000
   H     84.31000000    42.07000000    74.93000000
   H     81.69000000    40.82000000    74.54000000
   H     83.17000000    39.77000000    73.29000000
   H     83.98000000    41.27000000    72.68000000
   H     80.46000000    40.40000000    72.73000000
   H     80.38000000    40.39000000    71.01000000
   N     80.54000000    42.88000000    73.69000000
   C     79.75000000    44.02000000    73.26000000
   C     78.38000000    44.19000000    73.92000000
   O     77.36000000    44.35000000    73.26000000
   C     79.70000000    43.99000000    71.73000000
   C     79.36000000    45.29000000    71.05000000
   C     80.34000000    46.29000000    71.01000000
   C     78.23000000    45.44000000    70.23000000
   C     80.09000000    47.50000000    70.34000000
   C     77.96000000    46.62000000    69.52000000
   C     78.89000000    47.68000000    69.62000000
   O     78.65000000    48.85000000    68.97000000
   H     80.06000000    42.06000000    74.03000000
   H     80.22000000    44.92000000    73.63000000
   H     79.01000000    43.23000000    71.37000000
   H     80.68000000    43.75000000    71.31000000
   H     81.27000000    46.12000000    71.52000000
   H     77.56000000    44.60000000    70.21000000
   H     80.88000000    48.23000000    70.48000000
   H     77.07000000    46.69000000    68.92000000
   H     77.79000000    48.82000000    68.54000000
   N     78.38000000    43.99000000    75.24000000
   C     77.06000000    44.08000000    75.84000000
   C     76.45000000    45.47000000    75.82000000
   O     75.31000000    45.67000000    75.41000000
   C     77.00000000    43.40000000    77.20000000
   C     75.62000000    42.85000000    77.58000000
   C     75.53000000    41.33000000    77.62000000
   O     75.05000000    40.70000000    76.66000000
   O     76.07000000    40.67000000    78.53000000
   H     79.19000000    43.70000000    75.76000000
   H     76.46000000    43.42000000    75.22000000
   H     77.38000000    44.00000000    78.03000000
   H     77.68000000    42.55000000    77.20000000
   H     74.87000000    43.27000000    76.92000000
   H     75.31000000    43.25000000    78.55000000
   N     77.05000000    46.56000000    76.30000000
   C     78.36000000    46.67000000    76.91000000
   C     79.45000000    47.04000000    75.91000000
   O     79.23000000    47.46000000    74.77000000
   C     78.33000000    47.71000000    78.03000000
   C     77.42000000    47.54000000    79.25000000
   C     77.46000000    46.10000000    79.75000000
   O     76.42000000    45.66000000    80.29000000
   O     78.49000000    45.39000000    79.71000000
   H     76.51000000    47.42000000    76.21000000
   H     78.59000000    45.69000000    77.32000000
   H     78.09000000    48.66000000    77.57000000
   H     79.36000000    47.75000000    78.38000000
   H     76.41000000    47.85000000    79.00000000
   H     77.87000000    48.28000000    79.90000000
   N     80.71000000    46.87000000    76.32000000
   C     81.90000000    47.50000000    75.77000000
   H     82.72900000    46.79300000    75.79600000
   H     81.71000000    47.79900000    74.73900000
   H     82.15400000    48.37900000    76.36300000
   H     80.87000000    46.50000000    77.24000000
  Ca     77.60000000    43.80000000    81.71000000
   O     78.22000000    40.94000000    82.52000000
   H     79.15000000    41.02000000    82.29000000
   H     78.23000000    40.72000000    83.45000000
   O     78.24000000    42.11000000    79.92000000
   H     79.05000000    41.98000000    79.41000000
   H     77.67000000    41.40000000    79.64000000
   O     75.20000000    42.75000000    81.23000000
   H     74.79000000    42.01000000    80.78000000
   H     75.10000000    42.54000000    82.16000000

Ca 1.70



