%chk=loop1.cluster104.chk
%nprocshared=48
%mem=10GB
%nosave
#b3lyp/svp scf=(tight,noincore) Test 
#IOP(5/87=12) Density=Current Pop=(MK,readradii) iop(6/33=2) iop(6/42=6)

loop1.cluster104 

   0  1 
   C     78.22000000    86.02000000    87.01000000
   C     79.47000000    86.90000000    87.02000000
   O     79.38000000    88.10000000    86.75000000
   H     77.41100000    86.54500000    86.50200000
   H     78.43500000    85.08900000    86.48500000
   H     77.92200000    85.80000000    88.03500000
   N     80.67000000    86.36000000    87.21000000
   C     81.93000000    87.08000000    87.20000000
   C     82.46000000    87.23000000    85.78000000
   O     83.48000000    87.90000000    85.60000000
   C     82.90000000    86.28000000    88.07000000
   C     83.06000000    84.81000000    87.72000000
   O     84.23000000    84.41000000    87.49000000
   O     82.11000000    84.01000000    87.61000000
   H     80.71000000    85.39000000    87.49000000
   H     81.76000000    88.08000000    87.58000000
   H     82.58000000    86.28000000    89.11000000
   H     83.88000000    86.76000000    88.13000000
   N     81.87000000    86.60000000    84.77000000
   C     82.40000000    86.47000000    83.42000000
   C     81.90000000    87.53000000    82.45000000
   O     80.72000000    87.87000000    82.42000000
   C     82.14000000    85.05000000    82.92000000
   C     82.57000000    83.84000000    83.74000000
   C     84.08000000    83.66000000    83.84000000
   C     84.45000000    82.40000000    84.62000000
   N     83.65000000    82.18000000    85.84000000
   H     80.96000000    86.19000000    84.92000000
   H     83.48000000    86.53000000    83.46000000
   H     82.60000000    84.98000000    81.93000000
   H     81.07000000    84.93000000    82.75000000
   H     82.18000000    83.00000000    83.17000000
   H     82.09000000    83.84000000    84.72000000
   H     84.51000000    84.51000000    84.37000000
   H     84.53000000    83.61000000    82.85000000
   H     85.50000000    82.32000000    84.90000000
   H     84.16000000    81.64000000    83.89000000
   H     83.97000000    81.38000000    86.36000000
   H     83.66000000    83.04000000    86.37000000
   H     82.68000000    82.14000000    85.58000000
   N     82.77000000    88.19000000    81.68000000
   C     84.21000000    88.15000000    81.74000000
   C     84.83000000    89.51000000    81.45000000
   O     85.21000000    89.77000000    80.31000000
   C     84.78000000    87.18000000    80.71000000
   C     86.30000000    87.11000000    80.74000000
   O     87.00000000    87.30000000    81.75000000
   O     86.88000000    86.95000000    79.64000000
   H     82.32000000    88.77000000    80.98000000
   H     84.53000000    87.84000000    82.74000000
   H     84.42000000    87.49000000    79.73000000
   H     84.41000000    86.17000000    80.89000000
   N     84.89000000    90.50000000    82.35000000
   C     84.26000000    90.50000000    83.65000000
   C     83.73000000    91.87000000    84.03000000
   O     84.36000000    92.88000000    83.71000000
   H     85.44000000    91.28000000    82.02000000
   H     85.06000000    90.16000000    84.31000000
   H     83.50000000    89.71000000    83.58000000
   N     82.54000000    91.99000000    84.62000000
   C     81.69000000    91.02000000    85.29000000
   C     81.00000000    91.59000000    86.52000000
   O     81.09000000    92.77000000    86.85000000
   C     80.68000000    90.42000000    84.32000000
   C     79.73000000    91.40000000    83.64000000
   O     79.34000000    91.21000000    82.47000000
   O     79.33000000    92.35000000    84.35000000
   H     82.25000000    92.95000000    84.78000000
   H     82.30000000    90.19000000    85.64000000
   H     80.18000000    89.56000000    84.77000000
   H     81.29000000    90.07000000    83.49000000
   N     80.16000000    90.75000000    87.13000000
   C     79.31000000    91.00000000    88.27000000
   C     77.88000000    91.42000000    87.97000000
   O     77.05000000    91.57000000    88.86000000
   H     80.00000000    89.84000000    86.73000000
   H     79.75000000    91.83000000    88.83000000
   H     79.25000000    90.12000000    88.90000000
   N     77.53000000    91.57000000    86.69000000
   C     76.19000000    91.81000000    86.19000000
   C     75.57000000    90.52000000    85.66000000
   O     76.34000000    89.72000000    85.14000000
   C     76.11000000    92.99000000    85.23000000
   C     74.73000000    93.57000000    84.90000000
   O     76.51000000    92.67000000    83.91000000
   H     78.27000000    91.35000000    86.04000000
   H     75.59000000    92.09000000    87.06000000
   H     76.69000000    93.78000000    85.69000000
   H     77.46000000    92.65000000    84.00000000
   H     74.84000000    94.39000000    84.19000000
   H     74.14000000    92.71000000    84.58000000
   H     74.34000000    93.97000000    85.84000000
   N     74.26000000    90.29000000    85.60000000
   C     73.48000000    89.34000000    84.83000000
   C     72.39000000    90.10000000    84.08000000
   O     71.78000000    91.06000000    84.56000000
   C     72.96000000    88.21000000    85.71000000
   C     71.91000000    87.26000000    85.12000000
   C     72.41000000    88.79000000    87.01000000
   C     72.45000000    86.49000000    83.92000000
   H     73.71000000    91.04000000    85.99000000
   H     74.09000000    88.85000000    84.08000000
   H     73.78000000    87.59000000    86.06000000
   H     71.14000000    87.95000000    84.78000000
   H     71.58000000    86.58000000    85.91000000
   H     71.76000000    88.10000000    87.55000000
   H     73.27000000    89.00000000    87.63000000
   H     71.81000000    89.68000000    86.83000000
   H     71.69000000    85.82000000    83.52000000
   H     72.81000000    87.07000000    83.07000000
   H     73.30000000    85.87000000    84.21000000
   N     72.31000000    89.82000000    82.78000000
   C     71.60000000    90.62000000    81.80000000
   C     71.10000000    89.86000000    80.58000000
   O     70.11000000    90.29000000    80.00000000
   C     72.58000000    91.73000000    81.44000000
   C     72.05000000    92.69000000    80.38000000
   O     73.84000000    91.26000000    81.02000000
   H     72.84000000    89.03000000    82.44000000
   H     70.80000000    91.07000000    82.39000000
   H     72.65000000    92.48000000    82.23000000
   H     74.33000000    92.09000000    81.09000000
   H     71.05000000    92.97000000    80.72000000
   H     72.74000000    93.52000000    80.23000000
   H     71.92000000    92.18000000    79.42000000
   N     71.75000000    88.78000000    80.14000000
   C     71.61000000    88.07000000    78.89000000
   C     72.05000000    88.86000000    77.67000000
   O     72.32000000    90.06000000    77.71000000
   C     70.22000000    87.44000000    78.78000000
   C     69.85000000    86.50000000    79.93000000
   O     70.21000000    86.48000000    77.74000000
   H     72.43000000    88.42000000    80.80000000
   H     72.28000000    87.22000000    79.00000000
   H     69.42000000    88.10000000    78.46000000
   H     69.99000000    85.64000000    78.15000000
   H     70.50000000    85.63000000    79.93000000
   H     69.97000000    86.98000000    80.90000000
   H     68.82000000    86.17000000    79.82000000
   N     72.03000000    88.17000000    76.53000000
   C     72.24000000    88.81000000    75.25000000
   C     73.53000000    88.50000000    74.50000000
   O     73.80000000    89.22000000    73.54000000
   C     71.05000000    88.43000000    74.37000000
   C     69.94000000    89.47000000    74.33000000
   C     69.20000000    89.57000000    75.67000000
   C     68.08000000    90.61000000    75.76000000
   N     68.57000000    91.98000000    75.52000000
   H     71.56000000    87.28000000    76.58000000
   H     72.22000000    89.89000000    75.38000000
   H     70.59000000    87.46000000    74.53000000
   H     71.41000000    88.55000000    73.34000000
   H     69.18000000    89.32000000    73.56000000
   H     70.40000000    90.43000000    74.07000000
   H     69.86000000    89.74000000    76.52000000
   H     68.69000000    88.64000000    75.92000000
   H     67.58000000    90.62000000    76.72000000
   H     67.29000000    90.32000000    75.07000000
   H     69.48000000    92.23000000    75.89000000
   H     68.58000000    92.18000000    74.53000000
   H     67.90000000    92.64000000    75.87000000
   N     74.52000000    87.69000000    74.89000000
   C     74.76000000    86.73000000    75.96000000
   C     73.67000000    85.68000000    76.09000000
   O     73.20000000    85.40000000    77.19000000
   C     75.33000000    87.38000000    77.22000000
   C     76.80000000    87.77000000    77.20000000
   C     77.19000000    88.64000000    78.39000000
   O     76.76000000    88.47000000    79.55000000
   O     78.11000000    89.48000000    78.28000000
   H     75.29000000    87.86000000    74.27000000
   H     75.59000000    86.17000000    75.53000000
   H     75.14000000    86.64000000    78.00000000
   H     74.82000000    88.29000000    77.52000000
   H     76.97000000    88.37000000    76.30000000
   H     77.53000000    86.96000000    77.18000000
   N     73.10000000    85.19000000    74.99000000
   C     71.96000000    84.29000000    75.05000000
   H     71.12100000    84.73100000    74.51200000
   H     72.22400000    83.33700000    74.59200000
   H     71.67900000    84.12800000    76.09100000
   H     73.58000000    85.38000000    74.12000000
  Ca     78.73000000    89.18000000    81.14000000
   O     78.47000000    91.77000000    79.46000000
   H     78.42000000    91.01000000    78.89000000
   H     78.81000000    92.47000000    78.90000000
   O     80.03000000    87.33000000    79.71000000
   H     79.85000000    86.40000000    79.56000000
   H     80.86000000    87.49000000    79.26000000
   O     78.19000000    88.43000000    83.68000000
   H     78.72000000    87.76000000    84.12000000
   H     77.70000000    88.85000000    84.39000000
   O     81.23000000    90.13000000    80.10000000
   H     81.12000000    90.28000000    79.16000000
   H     81.55000000    90.97000000    80.44000000
   O     76.60000000    90.45000000    82.00000000
   H     76.55000000    91.26000000    82.51000000
   H     75.73000000    90.36000000    81.61000000
   O     78.11000000    85.99000000    81.66000000
   H     78.74000000    86.01000000    82.38000000
   H     78.47000000    85.34000000    81.05000000

Ca 1.70



