%chk=loop3.cluster187.chk
%nprocshared=48
%mem=10GB
%nosave
#b3lyp/svp scf=(tight,noincore) Test 
#IOP(5/87=12) Density=Current Pop=(MK,readradii) iop(6/33=2) iop(6/42=6)

loop3.cluster187 

   0  1 
   C    115.76000000    79.88000000    42.25000000
   C    116.94000000    78.92000000    42.23000000
   O    116.77000000    77.77000000    42.62000000
   H    114.91600000    79.40700000    42.75200000
   H    116.03800000    80.78700000    42.78600000
   H    115.47900000    80.13300000    41.22800000
   N    118.12000000    79.24000000    41.67000000
   C    119.15000000    78.25000000    41.46000000
   C    120.46000000    78.79000000    42.02000000
   O    120.74000000    79.98000000    41.92000000
   C    119.27000000    78.00000000    39.96000000
   C    120.31000000    76.92000000    39.69000000
   O    120.04000000    75.71000000    39.78000000
   O    121.48000000    77.27000000    39.42000000
   H    118.25000000    80.18000000    41.34000000
   H    118.91000000    77.28000000    41.90000000
   H    119.59000000    78.89000000    39.43000000
   H    118.26000000    77.79000000    39.60000000
   N    121.27000000    77.90000000    42.60000000
   C    122.54000000    78.27000000    43.19000000
   C    123.63000000    78.81000000    42.29000000
   O    124.53000000    79.43000000    42.85000000
   C    123.02000000    77.06000000    43.99000000
   C    123.72000000    76.00000000    43.14000000
   C    124.23000000    74.73000000    43.82000000
   C    125.03000000    73.72000000    43.01000000
   N    126.26000000    74.30000000    42.44000000
   H    120.96000000    76.94000000    42.66000000
   H    122.29000000    78.95000000    44.00000000
   H    122.16000000    76.66000000    44.52000000
   H    123.75000000    77.44000000    44.71000000
   H    124.63000000    76.46000000    42.76000000
   H    123.04000000    75.70000000    42.35000000
   H    123.40000000    74.18000000    44.27000000
   H    124.85000000    75.05000000    44.65000000
   H    124.41000000    73.34000000    42.20000000
   H    125.26000000    72.90000000    43.70000000
   H    126.77000000    74.90000000    43.08000000
   H    126.91000000    73.57000000    42.20000000
   H    126.06000000    74.93000000    41.68000000
   N    123.59000000    78.61000000    40.97000000
   C    124.57000000    79.24000000    40.10000000
   C    123.99000000    80.06000000    38.96000000
   O    124.65000000    80.84000000    38.28000000
   C    125.62000000    78.26000000    39.58000000
   C    125.04000000    76.92000000    39.18000000
   O    124.44000000    76.77000000    38.09000000
   O    125.03000000    76.04000000    40.07000000
   H    122.76000000    78.16000000    40.62000000
   H    125.18000000    79.88000000    40.73000000
   H    126.44000000    78.05000000    40.27000000
   H    126.12000000    78.68000000    38.71000000
   N    122.68000000    79.93000000    38.72000000
   C    122.01000000    80.53000000    37.58000000
   C    121.69000000    79.67000000    36.37000000
   O    121.50000000    80.19000000    35.28000000
   H    122.05000000    79.32000000    39.22000000
   H    122.45000000    81.49000000    37.31000000
   H    121.06000000    80.88000000    37.97000000
   N    121.66000000    78.34000000    36.49000000
   C    121.11000000    77.50000000    35.44000000
   C    120.50000000    76.25000000    36.06000000
   O    121.01000000    75.63000000    36.99000000
   C    122.21000000    77.15000000    34.45000000
   C    121.88000000    76.14000000    33.36000000
   N    122.87000000    75.56000000    32.68000000
   O    120.71000000    75.89000000    33.05000000
   H    121.96000000    77.92000000    37.36000000
   H    120.27000000    77.99000000    34.95000000
   H    123.11000000    76.82000000    34.97000000
   H    122.40000000    78.14000000    34.05000000
   H    123.82000000    75.75000000    32.98000000
   H    122.66000000    74.96000000    31.90000000
   N    119.34000000    75.86000000    35.53000000
   C    118.56000000    74.70000000    35.92000000
   C    118.99000000    73.38000000    35.31000000
   O    118.17000000    72.46000000    35.31000000
   H    118.98000000    76.32000000    34.71000000
   H    117.54000000    74.91000000    35.58000000
   H    118.41000000    74.56000000    36.99000000
   N    120.10000000    73.18000000    34.60000000
   C    120.60000000    71.90000000    34.13000000
   C    121.02000000    70.98000000    35.28000000
   O    121.67000000    71.44000000    36.21000000
   C    121.75000000    72.24000000    33.19000000
   C    122.54000000    71.03000000    32.76000000
   C    123.72000000    70.60000000    33.37000000
   C    122.05000000    70.22000000    31.72000000
   C    124.41000000    69.47000000    32.90000000
   C    122.72000000    69.09000000    31.23000000
   C    123.92000000    68.68000000    31.84000000
   O    124.41000000    67.44000000    31.56000000
   H    120.71000000    73.96000000    34.39000000
   H    119.78000000    71.42000000    33.59000000
   H    122.52000000    72.86000000    33.64000000
   H    121.31000000    72.78000000    32.35000000
   H    124.08000000    71.06000000    34.28000000
   H    121.07000000    70.43000000    31.34000000
   H    125.36000000    69.21000000    33.34000000
   H    122.22000000    68.41000000    30.56000000
   H    123.79000000    66.92000000    31.04000000
   N    120.55000000    69.73000000    35.25000000
   C    120.51000000    68.72000000    36.29000000
   C    121.81000000    68.00000000    36.62000000
   O    122.88000000    68.59000000    36.57000000
   C    119.64000000    69.15000000    37.46000000
   C    119.64000000    68.33000000    38.75000000
   C    118.21000000    69.37000000    36.97000000
   C    118.93000000    69.01000000    39.92000000
   H    120.07000000    69.52000000    34.39000000
   H    119.95000000    67.92000000    35.83000000
   H    120.06000000    70.11000000    37.77000000
   H    120.69000000    68.31000000    39.04000000
   H    119.18000000    67.36000000    38.63000000
   H    117.57000000    69.93000000    37.65000000
   H    118.04000000    69.79000000    35.98000000
   H    117.72000000    68.41000000    36.80000000
   H    119.13000000    68.45000000    40.84000000
   H    119.31000000    70.03000000    39.97000000
   H    117.85000000    69.01000000    39.79000000
   N    121.61000000    66.73000000    36.99000000
   C    122.70000000    65.97000000    37.59000000
   C    122.81000000    64.48000000    37.30000000
   O    123.87000000    63.88000000    37.46000000
   C    122.58000000    66.12000000    39.10000000
   O    121.27000000    65.74000000    39.45000000
   H    120.67000000    66.39000000    37.11000000
   H    123.62000000    66.45000000    37.26000000
   H    122.73000000    67.17000000    39.38000000
   H    123.35000000    65.59000000    39.66000000
   H    121.16000000    65.79000000    40.40000000
   N    121.73000000    63.79000000    36.95000000
   C    121.67000000    62.35000000    36.81000000
   C    122.47000000    61.55000000    37.82000000
   O    123.45000000    60.90000000    37.45000000
   C    122.06000000    61.96000000    35.39000000
   H    120.85000000    64.28000000    36.99000000
   H    120.64000000    62.01000000    36.91000000
   H    121.47000000    62.48000000    34.63000000
   H    123.10000000    62.27000000    35.28000000
   H    121.98000000    60.89000000    35.22000000
   N    122.18000000    61.54000000    39.13000000
   C    121.18000000    62.32000000    39.82000000
   C    119.94000000    61.55000000    40.26000000
   O    120.06000000    60.35000000    40.53000000
   C    122.03000000    62.84000000    40.97000000
   H    122.73000000    60.98000000    39.77000000
   H    120.93000000    63.22000000    39.26000000
   H    122.62000000    62.06000000    41.44000000
   H    122.67000000    63.60000000    40.52000000
   H    121.36000000    63.40000000    41.62000000
   N    118.75000000    62.14000000    40.38000000
   C    118.33000000    63.50000000    40.15000000
   C    117.24000000    63.63000000    39.09000000
   O    117.22000000    64.63000000    38.37000000
   C    117.78000000    64.01000000    41.48000000
   C    117.27000000    65.45000000    41.54000000
   C    116.87000000    65.75000000    42.97000000
   O    117.76000000    65.82000000    43.85000000
   O    115.64000000    65.88000000    43.19000000
   H    118.08000000    61.48000000    40.76000000
   H    119.13000000    64.17000000    39.84000000
   H    118.58000000    63.91000000    42.22000000
   H    116.94000000    63.40000000    41.79000000
   H    116.38000000    65.63000000    40.94000000
   H    118.06000000    66.16000000    41.27000000
   N    116.37000000    62.63000000    38.96000000
   C    115.17000000    62.72000000    38.16000000
   H    114.40600000    63.26800000    38.71200000
   H    115.39100000    63.24300000    37.23000000
   H    114.80600000    61.71700000    37.93600000
   H    116.22000000    62.11000000    39.81000000
  Ca    122.67000000    74.81000000    38.83000000
   O    123.56000000    73.66000000    36.62000000
   H    124.24000000    73.89000000    35.98000000
   H    123.26000000    72.79000000    36.35000000
   O    121.26000000    72.63000000    38.61000000
   H    120.37000000    72.38000000    38.86000000
   H    121.52000000    71.97000000    37.96000000
   O    124.65000000    73.23000000    39.58000000
   H    125.59000000    73.36000000    39.48000000
   H    124.55000000    72.31000000    39.81000000
   O    122.12000000    73.76000000    41.30000000
   H    121.59000000    73.93000000    42.08000000
   H    121.86000000    72.89000000    41.01000000

Ca 1.70



