%chk=loop4.cluster150.chk
%nprocshared=48
%mem=10GB
%nosave
#b3lyp/svp scf=(tight,noincore) Test 
#IOP(5/87=12) Density=Current Pop=(MK,readradii) iop(6/33=2) iop(6/42=6)

loop4.cluster150 

   -3  1 
   C     35.02000000    55.15000000     7.60600000
   C     36.26000000    54.86000000     8.44600000
   O     36.66000000    55.62000000     9.32600000
   H     34.24000000    55.56700000     8.24300000
   H     35.27000000    55.86600000     6.82300000
   H     34.66300000    54.22500000     7.15300000
   N     36.89000000    53.72000000     8.18600000
   C     38.17000000    53.28000000     8.69600000
   C     39.29000000    54.20000000     8.23600000
   O     39.71000000    54.06000000     7.08600000
   C     38.32000000    51.79000000     8.38600000
   C     39.70000000    51.35000000     8.85600000
   O     39.99000000    50.18000000     8.51600000
   O     40.40000000    51.89000000     9.73600000
   H     36.49000000    53.16000000     7.44600000
   H     38.16000000    53.32000000     9.78600000
   H     38.29000000    51.53000000     7.32600000
   H     37.50000000    51.26000000     8.87600000
   N     39.60000000    55.22000000     9.03600000
   C     40.70000000    56.16000000     8.87600000
   C     42.11000000    55.67000000     9.17600000
   O     43.05000000    56.31000000     8.71600000
   C     40.35000000    57.41000000     9.67600000
   C     40.00000000    57.18000000    11.14600000
   C     39.34000000    58.30000000     8.97600000
   C     40.00000000    58.41000000    12.04600000
   H     39.02000000    55.26000000     9.85600000
   H     40.67000000    56.43000000     7.82600000
   H     41.26000000    58.01000000     9.67600000
   H     40.73000000    56.47000000    11.54600000
   H     39.00000000    56.74000000    11.17600000
   H     39.72000000    58.63000000     8.01600000
   H     38.42000000    57.73000000     8.85600000
   H     39.16000000    59.22000000     9.54600000
   H     41.05000000    58.69000000    12.13600000
   H     39.50000000    59.29000000    11.64600000
   H     39.63000000    58.14000000    13.03600000
   N     42.25000000    54.51000000     9.82600000
   C     43.54000000    54.01000000    10.23600000
   C     44.02000000    52.80000000     9.44600000
   O     45.23000000    52.64000000     9.32600000
   C     43.55000000    53.83000000    11.75600000
   C     42.53000000    52.82000000    12.28600000
   O     42.42000000    51.69000000    11.77600000
   O     41.67000000    53.25000000    13.07600000
   H     41.43000000    53.94000000    10.00600000
   H     44.27000000    54.78000000    10.00600000
   H     43.39000000    54.80000000    12.20600000
   H     44.55000000    53.59000000    12.10600000
   N     43.11000000    52.06000000     8.81600000
   C     43.24000000    50.98000000     7.85600000
   C     43.33000000    49.56000000     8.40600000
   O     43.73000000    48.71000000     7.61600000
   H     42.22000000    52.28000000     9.24600000
   H     44.08000000    51.29000000     7.22600000
   H     42.36000000    50.94000000     7.22600000
   N     42.90000000    49.34000000     9.64600000
   C     42.74000000    48.02000000    10.20600000
   C     41.81000000    47.04000000     9.51600000
   O     42.15000000    45.86000000     9.40600000
   C     42.47000000    47.98000000    11.71600000
   C     41.30000000    48.83000000    12.17600000
   O     40.33000000    49.12000000    11.43600000
   O     41.41000000    49.44000000    13.26600000
   H     42.54000000    50.12000000    10.17600000
   H     43.72000000    47.55000000    10.14600000
   H     43.36000000    48.38000000    12.19600000
   H     42.33000000    46.94000000    12.01600000
   N     40.69000000    47.50000000     8.93600000
   C     39.63000000    46.61000000     8.50600000
   C     38.26000000    47.01000000     9.04600000
   O     37.21000000    46.78000000     8.44600000
   H     40.51000000    48.48000000     9.03600000
   H     39.84000000    45.65000000     8.96600000
   H     39.65000000    46.53000000     7.42600000
   N     38.27000000    47.68000000    10.19600000
   C     37.15000000    47.84000000    11.10600000
   C     36.80000000    49.28000000    11.47600000
   O     37.63000000    50.18000000    11.53600000
   C     37.23000000    46.89000000    12.29600000
   C     37.20000000    45.41000000    11.91600000
   C     37.33000000    44.49000000    13.12600000
   N     38.05000000    43.37000000    12.96600000
   O     36.84000000    44.73000000    14.22600000
   H     39.20000000    47.79000000    10.56600000
   H     36.29000000    47.53000000    10.52600000
   H     36.49000000    47.07000000    13.07600000
   H     38.21000000    47.02000000    12.75600000
   H     38.05000000    45.19000000    11.27600000
   H     36.36000000    45.15000000    11.26600000
   H     38.52000000    43.27000000    12.07600000
   H     38.20000000    42.72000000    13.71600000
   N     35.53000000    49.51000000    11.83600000
   C     35.11000000    50.85000000    12.19600000
   C     34.72000000    50.86000000    13.66600000
   O     33.76000000    50.22000000    14.09600000
   C     33.95000000    51.35000000    11.35600000
   C     33.54000000    52.78000000    11.68600000
   C     34.31000000    51.24000000     9.87600000
   H     34.85000000    48.80000000    11.58600000
   H     35.93000000    51.57000000    12.14600000
   H     33.12000000    50.66000000    11.49600000
   H     32.77000000    53.14000000    11.00600000
   H     33.10000000    52.84000000    12.68600000
   H     34.42000000    53.39000000    11.47600000
   H     34.53000000    50.22000000     9.54600000
   H     33.40000000    51.50000000     9.33600000
   H     34.99000000    52.00000000     9.48600000
   N     35.51000000    51.61000000    14.43600000
   C     35.38000000    51.88000000    15.85600000
   C     34.27000000    52.91000000    16.04600000
   O     34.02000000    53.70000000    15.14600000
   C     36.69000000    52.45000000    16.38600000
   C     36.91000000    52.53000000    17.88600000
   N     38.15000000    52.35000000    18.34600000
   O     35.97000000    52.53000000    18.66600000
   H     36.33000000    52.03000000    14.02600000
   H     35.11000000    50.94000000    16.34600000
   H     36.72000000    53.48000000    16.02600000
   H     37.48000000    51.90000000    15.86600000
   H     38.89000000    52.32000000    17.65600000
   H     38.41000000    52.61000000    19.28600000
   N     33.61000000    53.04000000    17.19600000
   C     32.59000000    54.04000000    17.43600000
   C     32.96000000    55.49000000    17.15600000
   O     32.29000000    56.32000000    16.54600000
   C     32.10000000    54.10000000    18.87600000
   C     30.91000000    54.95000000    19.23600000
   C     29.82000000    54.98000000    18.35600000
   C     30.96000000    55.85000000    20.31600000
   C     28.66000000    55.72000000    18.63600000
   C     29.80000000    56.57000000    20.59600000
   C     28.64000000    56.51000000    19.79600000
   O     27.54000000    57.28000000    20.05600000
   H     33.93000000    52.50000000    17.98600000
   H     31.80000000    53.80000000    16.71600000
   H     32.88000000    54.12000000    19.64600000
   H     31.74000000    53.08000000    19.03600000
   H     29.81000000    54.31000000    17.50600000
   H     31.82000000    55.95000000    20.96600000
   H     27.89000000    55.78000000    17.87600000
   H     29.83000000    57.23000000    21.45600000
   H     27.55000000    57.65000000    20.93600000
   N     34.17000000    55.90000000    17.55600000
   C     34.75000000    57.21000000    17.35600000
   C     34.88000000    57.57000000    15.88600000
   O     34.63000000    58.70000000    15.47600000
   C     36.11000000    57.26000000    18.03600000
   C     36.68000000    58.68000000    18.04600000
   C     37.95000000    58.73000000    18.88600000
   O     38.95000000    59.33000000    18.43600000
   O     37.97000000    58.25000000    20.04600000
   H     34.74000000    55.27000000    18.09600000
   H     34.23000000    57.99000000    17.91600000
   H     36.78000000    56.66000000    17.42600000
   H     35.93000000    56.91000000    19.05600000
   H     35.93000000    59.36000000    18.44600000
   H     36.91000000    58.95000000    17.01600000
   N     35.32000000    56.61000000    15.06600000
   C     35.42000000    56.69000000    13.61600000
   C     34.07000000    56.84000000    12.92600000
   O     33.94000000    57.60000000    11.97600000
   C     36.10000000    55.46000000    13.04600000
   C     37.56000000    55.25000000    13.45600000
   C     38.02000000    53.98000000    12.74600000
   O     38.90000000    53.94000000    11.86600000
   O     37.69000000    52.88000000    13.24600000
   H     35.44000000    55.65000000    15.35600000
   H     35.91000000    57.63000000    13.37600000
   H     36.27000000    55.42000000    11.96600000
   H     35.53000000    54.57000000    13.33600000
   H     37.53000000    55.15000000    14.54600000
   H     38.14000000    56.11000000    13.15600000
   N     33.03000000    56.19000000    13.47600000
   C     31.63000000    56.10000000    13.10600000
   H     31.07400000    56.90300000    13.59000000
   H     31.53300000    56.19300000    12.02400000
   H     31.23000000    55.13800000    13.42600000
   H     33.29000000    55.76000000    14.34600000
  Ca     39.79000000    51.59000000    12.17000000
   O     38.79000000    49.97000000    14.22000000
   H     39.48000000    49.37000000    13.94000000
   H     39.22000000    50.54000000    14.86000000
   O     40.54000000    51.87000000    15.15000000
   H     40.97000000    52.56000000    14.63000000
   H     41.26000000    51.40000000    15.56000000

Ca 1.70



