%chk=loop3.cluster188.chk
%nprocshared=48
%mem=10GB
%nosave
#b3lyp/svp scf=(tight,noincore) Test 
#IOP(5/87=12) Density=Current Pop=(MK,readradii) iop(6/33=2) iop(6/42=6)

loop3.cluster188 

   0  1 
   C     95.00000000    59.01000000    27.59000000
   C     95.56000000    57.60000000    27.62000000
   O     95.45000000    56.90000000    28.62000000
   H     94.04000000    59.03000000    28.10600000
   H     95.69400000    59.68800000    28.08800000
   H     94.86300000    59.32500000    26.55600000
   N     96.38000000    57.13000000    26.68000000
   C     97.10000000    55.87000000    26.68000000
   C     98.60000000    56.10000000    26.88000000
   O     99.26000000    56.85000000    26.16000000
   C     96.82000000    55.06000000    25.43000000
   C     97.53000000    53.71000000    25.45000000
   O     97.21000000    52.87000000    26.32000000
   O     98.26000000    53.37000000    24.50000000
   H     96.47000000    57.76000000    25.89000000
   H     96.80000000    55.26000000    27.53000000
   H     97.12000000    55.70000000    24.60000000
   H     95.76000000    54.82000000    25.31000000
   N     99.21000000    55.32000000    27.78000000
   C    100.52000000    55.45000000    28.37000000
   C    101.70000000    55.51000000    27.41000000
   O    102.79000000    55.89000000    27.83000000
   C    100.74000000    54.28000000    29.33000000
   C    100.65000000    52.84000000    28.81000000
   C    101.35000000    51.73000000    29.59000000
   C    101.19000000    50.45000000    28.78000000
   N    102.35000000    50.22000000    27.91000000
   H     98.58000000    54.70000000    28.25000000
   H    100.49000000    56.39000000    28.91000000
   H     99.96000000    54.40000000    30.08000000
   H    101.71000000    54.43000000    29.82000000
   H    101.16000000    52.77000000    27.85000000
   H     99.60000000    52.72000000    28.56000000
   H    100.76000000    51.62000000    30.50000000
   H    102.41000000    51.96000000    29.72000000
   H    100.29000000    50.51000000    28.16000000
   H    101.09000000    49.67000000    29.53000000
   H    102.10000000    50.35000000    26.94000000
   H    102.99000000    50.99000000    28.01000000
   H    102.79000000    49.31000000    27.90000000
   N    101.60000000    55.13000000    26.14000000
   C    102.68000000    55.01000000    25.17000000
   C    102.49000000    56.00000000    24.04000000
   O    103.38000000    56.15000000    23.20000000
   C    102.76000000    53.65000000    24.49000000
   C    101.41000000    53.15000000    23.97000000
   O    100.78000000    53.78000000    23.09000000
   O    100.89000000    52.11000000    24.42000000
   H    100.65000000    54.99000000    25.81000000
   H    103.65000000    55.23000000    25.60000000
   H    103.14000000    52.89000000    25.17000000
   H    103.45000000    53.70000000    23.65000000
   N    101.41000000    56.78000000    23.95000000
   C    101.28000000    57.88000000    23.02000000
   C    100.65000000    57.46000000    21.70000000
   O    100.18000000    58.39000000    21.05000000
   H    100.60000000    56.52000000    24.49000000
   H    102.24000000    58.29000000    22.71000000
   H    100.70000000    58.74000000    23.38000000
   N    100.72000000    56.20000000    21.28000000
   C    100.33000000    55.72000000    19.97000000
   C     99.05000000    54.90000000    19.98000000
   O     98.91000000    53.98000000    20.79000000
   C    101.54000000    54.91000000    19.49000000
   C    101.50000000    54.82000000    17.97000000
   N    101.94000000    55.85000000    17.25000000
   O    100.77000000    53.96000000    17.47000000
   H    101.13000000    55.54000000    21.93000000
   H    100.21000000    56.53000000    19.25000000
   H    101.67000000    53.89000000    19.85000000
   H    102.49000000    55.38000000    19.72000000
   H    102.36000000    56.61000000    17.75000000
   H    101.77000000    55.89000000    16.25000000
   N     98.07000000    55.30000000    19.18000000
   C     96.74000000    54.74000000    19.14000000
   C     96.72000000    53.32000000    18.60000000
   O     95.62000000    52.78000000    18.56000000
   H     98.29000000    56.05000000    18.53000000
   H     96.13000000    55.34000000    18.46000000
   H     96.33000000    54.69000000    20.16000000
   N     97.80000000    52.71000000    18.09000000
   C     97.86000000    51.28000000    17.88000000
   C     97.62000000    50.45000000    19.14000000
   O     98.18000000    50.75000000    20.19000000
   C     99.11000000    50.83000000    17.14000000
   C     98.95000000    50.96000000    15.64000000
   C     98.37000000    49.90000000    14.93000000
   C     99.26000000    52.15000000    14.97000000
   C     98.19000000    49.98000000    13.54000000
   C     98.98000000    52.26000000    13.60000000
   C     98.41000000    51.20000000    12.87000000
   O     98.20000000    51.25000000    11.52000000
   H     98.68000000    53.20000000    18.01000000
   H     96.99000000    51.06000000    17.26000000
   H     99.15000000    49.77000000    17.37000000
   H     99.91000000    51.47000000    17.51000000
   H     98.37000000    49.00000000    15.53000000
   H     99.70000000    52.94000000    15.55000000
   H     97.80000000    49.10000000    13.05000000
   H     99.21000000    53.16000000    13.03000000
   H     98.38000000    52.11000000    11.15000000
   N     96.74000000    49.45000000    19.05000000
   C     96.46000000    48.40000000    20.01000000
   C     97.60000000    47.47000000    20.37000000
   O     98.77000000    47.82000000    20.49000000
   C     95.56000000    48.93000000    21.12000000
   C     95.37000000    48.05000000    22.35000000
   C     94.20000000    49.39000000    20.61000000
   C     94.60000000    48.77000000    23.46000000
   H     96.33000000    49.38000000    18.13000000
   H     95.79000000    47.77000000    19.41000000
   H     95.95000000    49.86000000    21.53000000
   H     96.31000000    47.82000000    22.85000000
   H     94.80000000    47.14000000    22.15000000
   H     94.31000000    50.02000000    19.73000000
   H     93.65000000    48.47000000    20.37000000
   H     93.55000000    49.98000000    21.25000000
   H     93.53000000    48.78000000    23.27000000
   H     94.79000000    48.27000000    24.42000000
   H     94.86000000    49.82000000    23.53000000
   N     97.21000000    46.19000000    20.42000000
   C     98.08000000    45.09000000    20.80000000
   C     97.50000000    43.74000000    20.39000000
   O     98.18000000    42.72000000    20.51000000
   C     98.20000000    45.06000000    22.32000000
   O     96.96000000    45.22000000    22.95000000
   H     96.24000000    45.95000000    20.30000000
   H     99.05000000    45.11000000    20.30000000
   H     98.86000000    45.82000000    22.74000000
   H     98.57000000    44.09000000    22.66000000
   H     97.09000000    45.43000000    23.88000000
   N     96.24000000    43.61000000    19.99000000
   C     95.44000000    42.41000000    19.85000000
   C     95.90000000    41.25000000    20.72000000
   O     96.50000000    40.29000000    20.24000000
   C     95.40000000    42.11000000    18.35000000
   H     95.79000000    44.50000000    19.82000000
   H     94.40000000    42.66000000    20.06000000
   H     94.51000000    41.51000000    18.12000000
   H     95.21000000    43.00000000    17.76000000
   H     96.41000000    41.79000000    18.07000000
   N     95.75000000    41.24000000    22.04000000
   C     95.12000000    42.18000000    22.95000000
   C     93.68000000    41.73000000    23.17000000
   O     93.36000000    40.55000000    23.18000000
   C     95.98000000    42.26000000    24.21000000
   H     96.23000000    40.49000000    22.52000000
   H     95.25000000    43.14000000    22.46000000
   H     95.65000000    41.54000000    24.96000000
   H     97.04000000    42.09000000    24.02000000
   H     95.98000000    43.24000000    24.67000000
   N     92.71000000    42.64000000    23.31000000
   C     92.72000000    44.08000000    23.28000000
   C     91.85000000    44.58000000    22.13000000
   O     92.43000000    45.35000000    21.37000000
   C     92.22000000    44.53000000    24.65000000
   C     92.40000000    46.03000000    24.90000000
   C     91.58000000    46.62000000    26.04000000
   O     90.34000000    46.74000000    26.06000000
   O     92.27000000    47.04000000    27.00000000
   H     91.76000000    42.30000000    23.43000000
   H     93.74000000    44.39000000    23.05000000
   H     92.62000000    43.93000000    25.47000000
   H     91.14000000    44.41000000    24.73000000
   H     92.19000000    46.59000000    23.99000000
   H     93.44000000    46.22000000    25.13000000
   N     90.63000000    44.08000000    21.93000000
   C     89.64000000    44.46000000    20.95000000
   H     88.78200000    44.90300000    21.45500000
   H     90.07000000    45.18600000    20.26100000
   H     89.31900000    43.57800000    20.39600000
   H     90.39000000    43.25000000    22.46000000
  Ca     98.94000000    51.94000000    22.57000000
   O     96.27000000    52.63000000    21.99000000
   H     95.89000000    53.22000000    22.64000000
   H     95.59000000    52.53000000    21.32000000
   O     97.17000000    50.64000000    24.00000000
   H     97.17000000    49.86000000    24.54000000
   H     96.55000000    51.23000000    24.42000000
   O    100.83700000    51.33000000    20.65000000
   H    101.79700000    51.29000000    20.71000000
   H    100.63700000    51.01000000    19.77000000
   O     99.66700000    49.20000000    22.65000000
   H     99.40700000    48.77000000    23.46000000
   H     99.33700000    48.63000000    21.95000000

Ca 1.70



