%chk=loop2.cluster241.chk
%nprocshared=48
%mem=10GB
%nosave
#b3lyp/svp scf=(tight,noincore) Test 
#IOP(5/87=12) Density=Current Pop=(MK,readradii) iop(6/33=2) iop(6/42=6)

loop2.cluster241 

   -2  1 
   C     17.49000000    95.96000000    61.21000000
   C     17.80000000    97.30000000    61.86000000
   O     18.41000000    98.20000000    61.27000000
   H     16.60100000    96.05600000    60.58600000
   H     18.33400000    95.65100000    60.59300000
   H     17.31100000    95.21300000    61.98300000
   N     17.40000000    97.46000000    63.12000000
   C     17.66000000    98.64000000    63.93000000
   C     16.73000000    99.83000000    63.76000000
   O     16.80000000   100.83000000    64.47000000
   C     17.71000000    98.12000000    65.37000000
   C     18.43000000    99.02000000    66.36000000
   O     18.66000000    98.49000000    67.47000000
   O     18.89000000   100.16000000    66.19000000
   H     16.81000000    96.73000000    63.49000000
   H     18.68000000    98.85000000    63.62000000
   H     18.26000000    97.18000000    65.40000000
   H     16.65000000    98.00000000    65.63000000
   N     15.70000000    99.65000000    62.93000000
   C     14.57000000   100.53000000    62.72000000
   C     13.28000000    99.80000000    62.35000000
   O     13.26000000    98.76000000    61.70000000
   C     14.92000000   101.57000000    61.66000000
   H     15.57000000    98.74000000    62.51000000
   H     14.39000000   101.05000000    63.66000000
   H     14.13000000   102.32000000    61.72000000
   H     15.88000000   102.05000000    61.86000000
   H     14.96000000   101.19000000    60.64000000
   N     12.10000000   100.29000000    62.73000000
   C     11.71000000   101.62000000    63.15000000
   C     10.56000000   101.56000000    64.14000000
   O      9.66000000   100.77000000    63.87000000
   C     11.39000000   102.45000000    61.91000000
   C     11.29000000   103.95000000    62.18000000
   O     12.09000000   104.53000000    62.95000000
   O     10.41000000   104.61000000    61.61000000
   H     11.42000000    99.55000000    62.62000000
   H     12.60000000   102.06000000    63.60000000
   H     10.40000000   102.15000000    61.57000000
   H     12.00000000   102.25000000    61.03000000
   N     10.53000000   102.35000000    65.21000000
   C      9.53000000   102.44000000    66.26000000
   C      9.99000000   101.96000000    67.62000000
   O     11.14000000   102.17000000    68.00000000
   H     11.26000000   103.05000000    65.22000000
   H      8.63000000   101.91000000    65.94000000
   H      9.24000000   103.48000000    66.43000000
   N      9.18000000   101.32000000    68.47000000
   C      7.76000000   101.04000000    68.33000000
   C      7.48000000   100.18000000    67.10000000
   O      8.10000000    99.14000000    66.88000000
   C      7.23000000   100.45000000    69.63000000
   C      5.71000000   100.45000000    69.67000000
   N      4.96000000   101.32000000    70.34000000
   O      5.18000000    99.70000000    68.85000000
   H      9.64000000   100.85000000    69.23000000
   H      7.25000000   101.97000000    68.10000000
   H      7.71000000   101.11000000    70.36000000
   H      7.68000000    99.46000000    69.70000000
   H      5.23000000   101.95000000    71.09000000
   H      3.96000000   101.32000000    70.20000000
   N      6.56000000   100.55000000    66.20000000
   C      6.44000000   100.04000000    64.85000000
   C      6.03000000   101.13000000    63.87000000
   O      5.01000000   101.01000000    63.20000000
   H      5.92000000   101.28000000    66.46000000
   H      5.64000000    99.30000000    64.77000000
   H      7.36000000    99.60000000    64.47000000
   N      6.90000000   102.12000000    63.63000000
   C      6.76000000   103.12000000    62.59000000
   C      7.49000000   102.78000000    61.30000000
   O      7.98000000   103.65000000    60.58000000
   C      7.25000000   104.47000000    63.12000000
   C      6.28000000   104.97000000    64.20000000
   O      8.56000000   104.34000000    63.62000000
   H      7.77000000   102.23000000    64.13000000
   H      5.71000000   103.24000000    62.35000000
   H      7.29000000   105.26000000    62.38000000
   H      9.19000000   104.40000000    62.90000000
   H      6.37000000   104.50000000    65.18000000
   H      6.38000000   106.02000000    64.45000000
   H      5.29000000   104.89000000    63.76000000
   N      7.46000000   101.49000000    60.96000000
   C      7.85000000   100.99000000    59.65000000
   C      6.98000000   101.40000000    58.47000000
   O      5.75000000   101.32000000    58.51000000
   C      8.14000000    99.49000000    59.65000000
   C      9.22000000    99.03000000    60.63000000
   C      6.85000000    98.70000000    59.82000000
   C      9.93000000    97.73000000    60.25000000
   H      7.07000000   100.81000000    61.60000000
   H      8.76000000   101.56000000    59.49000000
   H      8.46000000    99.31000000    58.62000000
   H      8.77000000    98.96000000    61.62000000
   H      9.93000000    99.86000000    60.72000000
   H      6.33000000    99.14000000    60.67000000
   H      6.25000000    98.60000000    58.92000000
   H      7.08000000    97.67000000    60.11000000
   H     10.30000000    97.72000000    59.23000000
   H     10.81000000    97.64000000    60.89000000
   H      9.29000000    96.85000000    60.36000000
   N      7.61000000   101.87000000    57.39000000
   C      6.98000000   102.31000000    56.17000000
   C      7.83000000   102.05000000    54.93000000
   O      9.02000000   102.35000000    54.97000000
   C      6.54000000   103.75000000    56.39000000
   C      7.62000000   104.70000000    56.90000000
   O      7.41000000   105.27000000    58.00000000
   O      8.61000000   105.08000000    56.24000000
   H      8.62000000   101.98000000    57.48000000
   H      6.10000000   101.68000000    56.02000000
   H      5.76000000   103.82000000    57.15000000
   H      6.05000000   104.09000000    55.47000000
   N      7.22000000   101.57000000    53.84000000
   C      7.82000000   101.09000000    52.62000000
   C      8.86000000    99.97000000    52.67000000
   O      8.54000000    98.92000000    53.22000000
   C      6.69000000   100.67000000    51.68000000
   C      7.11000000   100.36000000    50.27000000
   C      7.60000000    99.09000000    49.94000000
   C      7.21000000   101.46000000    49.41000000
   C      8.03000000    98.84000000    48.63000000
   C      7.71000000   101.15000000    48.14000000
   C      8.06000000    99.88000000    47.69000000
   H      6.21000000   101.57000000    53.83000000
   H      8.26000000   101.96000000    52.12000000
   H      6.00000000   101.50000000    51.54000000
   H      6.32000000    99.68000000    51.98000000
   H      7.52000000    98.26000000    50.62000000
   H      7.00000000   102.46000000    49.78000000
   H      8.27000000    97.83000000    48.33000000
   H      7.76000000   101.93000000    47.39000000
   H      8.35000000    99.63000000    46.68000000
   N     10.09000000   100.18000000    52.21000000
   C     11.14000000    99.19000000    52.31000000
   C     11.54000000    98.81000000    53.73000000
   O     12.12000000    97.75000000    53.95000000
   C     12.32000000    99.65000000    51.45000000
   C     12.09000000   101.16000000    51.44000000
   C     10.58000000   101.36000000    51.53000000
   H     10.70000000    98.31000000    51.85000000
   H     13.28000000    99.38000000    51.90000000
   H     12.18000000    99.34000000    50.42000000
   H     12.60000000   101.58000000    52.31000000
   H     12.56000000   101.55000000    50.54000000
   H     10.26000000   102.32000000    51.94000000
   H     10.23000000   101.16000000    50.52000000
   N     11.18000000    99.63000000    54.71000000
   C     11.62000000    99.47000000    56.08000000
   C     11.26000000    98.12000000    56.69000000
   O     12.01000000    97.65000000    57.54000000
   C     10.97000000   100.62000000    56.84000000
   C     11.69000000   101.96000000    56.68000000
   C     11.10000000   102.93000000    57.69000000
   O     11.78000000   103.95000000    57.94000000
   O      9.97000000   102.84000000    58.22000000
   H     10.78000000   100.53000000    54.49000000
   H     12.70000000    99.55000000    56.16000000
   H     10.98000000   100.33000000    57.89000000
   H      9.90000000   100.63000000    56.63000000
   H     11.51000000   102.32000000    55.67000000
   H     12.74000000   101.76000000    56.88000000
   N     10.19000000    97.49000000    56.21000000
   C      9.74000000    96.15000000    56.55000000
   H      8.76200000    95.97100000    56.10300000
   H     10.45300000    95.41900000    56.16800000
   H      9.66600000    96.05500000    57.63300000
   H      9.68000000    97.94000000    55.46000000
  Ca      9.72000000   105.20300000    59.18000000
   O     12.19000000   106.60300000    59.61000000
   H     12.90000000   106.58300000    60.26000000
   H     12.46000000   107.25300000    58.97000000

Ca 1.70



