%chk=loop3.cluster53.chk
%nprocshared=48
%mem=10GB
%nosave
#b3lyp/svp scf=(tight,noincore) Test 
#IOP(5/87=12) Density=Current Pop=(MK,readradii) iop(6/33=2) iop(6/42=6)

loop3.cluster53 

   0  1 
   C     96.74000000    45.17000000   101.14000000
   C     97.92000000    45.81000000   100.42000000
   O     97.82000000    46.22000000    99.26000000
   H     95.87400000    45.15900000   100.47800000
   H     96.99500000    44.14800000   101.42000000
   H     96.50500000    45.74500000   102.03600000
   N     99.01000000    46.04000000   101.16000000
   C    100.26000000    46.56000000   100.64000000
   C    101.44000000    45.77000000   101.17000000
   O    101.35000000    44.77000000   101.88000000
   C    100.44000000    48.06000000   100.87000000
   C    100.30000000    48.61000000   102.28000000
   O    100.42000000    49.85000000   102.43000000
   O    100.17000000    47.80000000   103.22000000
   H     99.07000000    45.85000000   102.15000000
   H    100.23000000    46.42000000    99.56000000
   H     99.63000000    48.59000000   100.38000000
   H    101.40000000    48.40000000   100.46000000
   N    102.63000000    46.20000000   100.74000000
   C    103.89000000    45.89000000   101.37000000
   C    104.72000000    44.88000000   100.58000000
   O    105.70000000    44.42000000   101.17000000
   C    104.63000000    47.18000000   101.70000000
   C    103.94000000    47.85000000   102.89000000
   C    104.48000000    49.24000000   103.20000000
   C    103.81000000    50.03000000   104.32000000
   N    102.50000000    50.62000000   103.98000000
   H    102.58000000    46.95000000   100.06000000
   H    103.71000000    45.32000000   102.29000000
   H    104.57000000    47.78000000   100.80000000
   H    105.64000000    46.91000000   102.00000000
   H    104.05000000    47.18000000   103.74000000
   H    102.88000000    47.90000000   102.64000000
   H    104.35000000    49.81000000   102.27000000
   H    105.53000000    49.15000000   103.47000000
   H    104.51000000    50.72000000   104.79000000
   H    103.58000000    49.37000000   105.15000000
   H    102.64000000    51.21000000   103.17000000
   H    101.83000000    49.91000000   103.74000000
   H    102.13000000    51.13000000   104.77000000
   N    104.33000000    44.67000000    99.33000000
   C    104.90000000    43.66000000    98.46000000
   C    105.02000000    44.08000000    97.00000000
   O    105.11000000    43.22000000    96.13000000
   C    104.13000000    42.34000000    98.57000000
   C    102.62000000    42.57000000    98.51000000
   O    102.15000000    43.47000000    97.78000000
   O    101.88000000    41.87000000    99.22000000
   H    103.51000000    45.17000000    99.02000000
   H    105.93000000    43.41000000    98.69000000
   H    104.33000000    41.88000000    99.54000000
   H    104.43000000    41.66000000    97.78000000
   N    105.00000000    45.38000000    96.71000000
   C    105.09000000    45.97000000    95.39000000
   C    103.76000000    46.47000000    94.86000000
   O    102.71000000    46.46000000    95.50000000
   H    105.01000000    45.99000000    97.52000000
   H    105.36000000    45.15000000    94.72000000
   H    105.87000000    46.74000000    95.40000000
   N    103.69000000    46.94000000    93.61000000
   C    104.82000000    47.21000000    92.76000000
   C    104.36000000    46.95000000    91.33000000
   O    103.48000000    47.67000000    90.86000000
   C    105.21000000    48.69000000    92.82000000
   C    106.31000000    49.17000000    91.89000000
   N    107.59000000    48.85000000    92.07000000
   O    106.04000000    49.91000000    90.95000000
   H    102.80000000    47.25000000    93.24000000
   H    105.62000000    46.50000000    92.95000000
   H    105.32000000    48.85000000    93.89000000
   H    104.35000000    49.34000000    92.66000000
   H    107.92000000    48.36000000    92.89000000
   H    108.18000000    49.47000000    91.52000000
   N    104.89000000    46.01000000    90.54000000
   C    105.80000000    44.94000000    90.88000000
   C    105.14000000    43.75000000    91.55000000
   O    104.64000000    43.87000000    92.66000000
   H    104.44000000    46.03000000    89.63000000
   H    106.54000000    45.34000000    91.59000000
   H    106.26000000    44.56000000    89.97000000
   N    105.32000000    42.55000000    90.99000000
   C    104.59000000    41.33000000    91.30000000
   C    105.38000000    40.03000000    91.20000000
   O    106.33000000    39.98000000    90.41000000
   C    103.40000000    41.27000000    90.35000000
   C    102.44000000    42.43000000    90.40000000
   C    101.52000000    42.60000000    91.44000000
   C    102.63000000    43.40000000    89.40000000
   C    100.68000000    43.72000000    91.43000000
   C    101.70000000    44.44000000    89.33000000
   C    100.70000000    44.58000000    90.32000000
   O     99.82000000    45.62000000    90.21000000
   H    105.95000000    42.59000000    90.20000000
   H    104.25000000    41.40000000    92.33000000
   H    102.71000000    40.43000000    90.45000000
   H    103.68000000    41.00000000    89.33000000
   H    101.48000000    41.93000000    92.29000000
   H    103.39000000    43.27000000    88.65000000
   H     99.97000000    43.81000000    92.24000000
   H    101.85000000    45.19000000    88.56000000
   H    100.18000000    46.06000000    89.43000000
   N    105.01000000    38.98000000    91.93000000
   C    105.55000000    37.65000000    91.76000000
   C    104.65000000    36.80000000    90.88000000
   O    105.16000000    35.80000000    90.38000000
   C    105.81000000    36.87000000    93.05000000
   C    104.67000000    36.14000000    93.74000000
   C    106.92000000    35.84000000    92.90000000
   C    104.83000000    36.04000000    95.26000000
   H    104.10000000    39.10000000    92.36000000
   H    106.50000000    37.74000000    91.23000000
   H    106.20000000    37.64000000    93.73000000
   H    104.62000000    35.09000000    93.45000000
   H    103.73000000    36.69000000    93.64000000
   H    106.72000000    35.06000000    92.16000000
   H    107.83000000    36.36000000    92.61000000
   H    107.18000000    35.48000000    93.90000000
   H    105.00000000    37.04000000    95.66000000
   H    103.97000000    35.56000000    95.71000000
   H    105.70000000    35.45000000    95.55000000
   N    103.38000000    37.17000000    90.70000000
   C    102.48000000    36.67000000    89.68000000
   C    101.69000000    35.40000000    89.97000000
   O    101.02000000    34.92000000    89.05000000
   C    101.56000000    37.84000000    89.35000000
   O    100.73000000    38.15000000    90.45000000
   H    103.12000000    38.01000000    91.20000000
   H    103.09000000    36.48000000    88.80000000
   H    100.91000000    37.62000000    88.50000000
   H    102.17000000    38.72000000    89.14000000
   H    101.29000000    38.42000000    91.19000000
   N    101.68000000    35.03000000    91.25000000
   C    101.08000000    33.82000000    91.78000000
   C    100.71000000    34.08000000    93.23000000
   O    101.56000000    34.59000000    93.96000000
   C    102.05000000    32.64000000    91.76000000
   H    102.33000000    35.49000000    91.87000000
   H    100.15000000    33.57000000    91.27000000
   H    102.37000000    32.48000000    90.73000000
   H    102.91000000    32.98000000    92.33000000
   H    101.68000000    31.65000000    92.03000000
   N     99.46000000    33.71000000    93.52000000
   C     98.84000000    33.88000000    94.82000000
   C     99.04000000    35.25000000    95.45000000
   O     99.45000000    35.35000000    96.60000000
   C     99.26000000    32.76000000    95.77000000
   H     98.91000000    33.24000000    92.82000000
   H     97.77000000    33.70000000    94.70000000
   H     98.84000000    32.90000000    96.76000000
   H     98.93000000    31.84000000    95.27000000
   H    100.35000000    32.79000000    95.76000000
   N     98.76000000    36.38000000    94.79000000
   C     98.88000000    37.73000000    95.29000000
   C     97.51000000    38.39000000    95.16000000
   O     97.16000000    39.19000000    96.03000000
   C     99.82000000    38.57000000    94.43000000
   C    101.24000000    38.01000000    94.39000000
   C    102.26000000    38.87000000    93.66000000
   O    103.19000000    39.51000000    94.20000000
   O    102.12000000    39.00000000    92.42000000
   H     98.33000000    36.26000000    93.88000000
   H     99.19000000    37.69000000    96.33000000
   H     99.92000000    39.62000000    94.71000000
   H     99.38000000    38.49000000    93.44000000
   H    101.20000000    37.07000000    93.83000000
   H    101.53000000    38.02000000    95.44000000
   N     96.67000000    38.06000000    94.17000000
   C     95.32000000    38.55000000    94.04000000
   H     94.67600000    38.03100000    94.75000000
   H     95.30000000    39.62000000    94.24700000
   H     94.96300000    38.36900000    93.02600000
   H     97.02000000    37.50000000    93.41000000
  Ca    100.40900000    44.18000000    96.09000000
   O     99.22000000    41.33000000    96.61000000
   H     99.99000000    40.83000000    96.88000000
   H     98.58000000    41.19000000    97.31000000
   O    102.10900000    41.43000000    95.73000000
   H    102.83900000    41.08000000    95.21000000
   H    101.64900000    40.65000000    96.05000000
   O     99.31000000    42.50000000    94.30000000
   H     99.69000000    41.63000000    94.24000000
   H     98.40000000    42.36000000    94.55000000
   O     99.52000000    46.41000000    97.27000000
   H     99.00000000    46.58000000    98.05000000
   H     99.41000000    47.21000000    96.74000000
   O    102.39900000    43.77000000    94.17000000
   H    102.69900000    42.94000000    94.54000000
   H    103.00900000    43.93000000    93.44000000
   O    100.24900000    45.80000000    94.05000000
   H     99.89900000    45.21000000    93.38000000
   H    100.72900000    46.46000000    93.55000000
   O     99.47000000    43.25000000    98.59000000
   H     98.80000000    42.94000000    99.20000000
   H    100.26000000    42.77000000    98.84000000
   O     97.96000000    44.82000000    95.53000000
   H     97.14000000    44.93000000    96.02000000
   H     97.80000000    45.26000000    94.70000000

Ca 1.70



