%chk=loop1.cluster24.chk
%nprocshared=48
%mem=10GB
%nosave
#b3lyp/svp scf=(tight,noincore) Test 
#IOP(5/87=12) Density=Current Pop=(MK,readradii) iop(6/33=2) iop(6/42=6)

loop1.cluster24 

   0  1 
   C     79.30000000    82.57000000    85.89000000
   C     80.65000000    83.28000000    85.96000000
   O     80.82000000    84.47000000    85.71000000
   H     78.56600000    83.23100000    85.43000000
   H     79.39600000    81.66300000    85.29300000
   H     78.97300000    82.31000000    86.89700000
   N     81.66000000    82.50000000    86.33000000
   C     83.04000000    82.95000000    86.34000000
   C     83.80000000    82.86000000    85.03000000
   O     84.89000000    83.40000000    84.92000000
   C     83.78000000    82.29000000    87.50000000
   C     83.80000000    80.77000000    87.33000000
   O     84.83000000    80.12000000    87.06000000
   O     82.72000000    80.16000000    87.45000000
   H     81.47000000    81.62000000    86.78000000
   H     83.02000000    83.98000000    86.69000000
   H     83.38000000    82.54000000    88.48000000
   H     84.83000000    82.56000000    87.45000000
   N     83.22000000    82.37000000    83.93000000
   C     83.90000000    82.15000000    82.67000000
   C     84.01000000    83.31000000    81.70000000
   O     82.98000000    83.90000000    81.38000000
   C     83.31000000    80.90000000    82.02000000
   C     83.39000000    79.63000000    82.87000000
   C     84.79000000    79.17000000    83.29000000
   C     84.64000000    77.85000000    84.04000000
   N     84.13000000    78.09000000    85.40000000
   H     82.21000000    82.32000000    83.88000000
   H     84.91000000    81.78000000    82.85000000
   H     83.85000000    80.83000000    81.07000000
   H     82.25000000    81.12000000    81.94000000
   H     82.84000000    78.80000000    82.45000000
   H     82.78000000    79.87000000    83.74000000
   H     85.33000000    79.88000000    83.91000000
   H     85.23000000    79.07000000    82.30000000
   H     85.67000000    77.51000000    84.14000000
   H     83.88000000    77.23000000    83.57000000
   H     83.95000000    77.13000000    85.66000000
   H     84.75000000    78.62000000    85.99000000
   H     83.23000000    78.54000000    85.34000000
   N     85.17000000    83.65000000    81.11000000
   C     86.54000000    83.34000000    81.46000000
   C     87.48000000    84.52000000    81.26000000
   O     88.17000000    84.63000000    80.25000000
   C     86.82000000    82.07000000    80.67000000
   C     88.26000000    81.58000000    80.82000000
   O     88.63000000    80.68000000    80.04000000
   O     88.95000000    81.87000000    81.82000000
   H     84.96000000    84.35000000    80.42000000
   H     86.62000000    83.03000000    82.50000000
   H     86.68000000    82.20000000    79.59000000
   H     86.18000000    81.30000000    81.09000000
   N     87.51000000    85.51000000    82.16000000
   C     86.73000000    85.71000000    83.36000000
   C     86.31000000    87.16000000    83.55000000
   O     86.89000000    88.05000000    82.93000000
   H     88.22000000    86.19000000    81.93000000
   H     87.24000000    85.22000000    84.19000000
   H     85.82000000    85.11000000    83.36000000
   N     85.25000000    87.52000000    84.28000000
   C     84.25000000    86.66000000    84.88000000
   C     83.56000000    87.30000000    86.08000000
   O     83.92000000    88.42000000    86.43000000
   C     83.23000000    86.31000000    83.80000000
   C     82.56000000    87.47000000    83.09000000
   O     82.48000000    87.36000000    81.85000000
   O     82.06000000    88.43000000    83.72000000
   H     85.10000000    88.51000000    84.38000000
   H     84.72000000    85.81000000    85.38000000
   H     82.44000000    85.68000000    84.23000000
   H     83.78000000    85.65000000    83.13000000
   N     82.54000000    86.66000000    86.65000000
   C     81.71000000    86.99000000    87.80000000
   C     80.53000000    87.91000000    87.51000000
   O     79.93000000    88.30000000    88.51000000
   H     82.23000000    85.83000000    86.16000000
   H     82.24000000    87.29000000    88.70000000
   H     81.22000000    86.03000000    87.97000000
   N     80.19000000    88.21000000    86.26000000
   C     79.00000000    88.93000000    85.86000000
   C     78.09000000    88.07000000    85.00000000
   O     78.52000000    87.21000000    84.24000000
   C     79.46000000    90.18000000    85.10000000
   C     78.30000000    91.18000000    85.07000000
   O     79.93000000    89.90000000    83.81000000
   H     80.73000000    87.86000000    85.48000000
   H     78.46000000    89.28000000    86.74000000
   H     80.21000000    90.71000000    85.68000000
   H     80.74000000    89.39000000    83.86000000
   H     78.76000000    91.90000000    84.39000000
   H     77.44000000    90.79000000    84.54000000
   H     78.08000000    91.47000000    86.10000000
   N     76.79000000    88.36000000    84.95000000
   C     75.89000000    87.72000000    84.02000000
   C     74.93000000    88.81000000    83.56000000
   O     74.27000000    89.51000000    84.32000000
   C     75.30000000    86.46000000    84.66000000
   C     74.09000000    85.79000000    84.03000000
   C     75.02000000    86.65000000    86.15000000
   C     74.33000000    85.27000000    82.61000000
   H     76.35000000    88.91000000    85.68000000
   H     76.48000000    87.41000000    83.15000000
   H     76.07000000    85.68000000    84.67000000
   H     73.23000000    86.46000000    84.07000000
   H     73.74000000    84.94000000    84.63000000
   H     74.45000000    85.79000000    86.51000000
   H     75.96000000    86.78000000    86.69000000
   H     74.35000000    87.48000000    86.34000000
   H     75.14000000    84.55000000    82.51000000
   H     73.39000000    84.81000000    82.29000000
   H     74.43000000    86.09000000    81.90000000
   N     74.75000000    88.87000000    82.24000000
   C     74.05000000    89.89000000    81.49000000
   C     73.25000000    89.36000000    80.31000000
   O     72.17000000    89.89000000    80.08000000
   C     75.15000000    90.88000000    81.12000000
   C     74.71000000    92.22000000    80.54000000
   O     75.95000000    90.25000000    80.15000000
   H     75.09000000    88.12000000    81.66000000
   H     73.42000000    90.58000000    82.05000000
   H     75.68000000    91.15000000    82.04000000
   H     76.82000000    90.30000000    80.56000000
   H     74.34000000    92.86000000    81.35000000
   H     75.61000000    92.69000000    80.14000000
   H     74.02000000    92.07000000    79.71000000
   N     73.67000000    88.21000000    79.77000000
   C     73.26000000    87.60000000    78.53000000
   C     73.65000000    88.40000000    77.30000000
   O     73.72000000    89.63000000    77.35000000
   C     71.77000000    87.29000000    78.62000000
   C     71.44000000    86.41000000    79.82000000
   O     71.31000000    86.75000000    77.41000000
   H     74.42000000    87.71000000    80.23000000
   H     73.75000000    86.62000000    78.46000000
   H     71.21000000    88.22000000    78.68000000
   H     71.00000000    85.87000000    77.63000000
   H     71.72000000    86.91000000    80.75000000
   H     70.38000000    86.17000000    79.79000000
   H     72.11000000    85.54000000    79.77000000
   N     73.86000000    87.68000000    76.19000000
   C     74.04000000    88.23000000    74.87000000
   C     75.42000000    87.97000000    74.27000000
   O     75.83000000    88.84000000    73.50000000
   C     72.88000000    87.99000000    73.91000000
   C     71.97000000    89.17000000    73.61000000
   C     71.25000000    89.62000000    74.88000000
   C     70.31000000    90.79000000    74.58000000
   N     69.57000000    91.04000000    75.82000000
   H     73.77000000    86.68000000    76.33000000
   H     74.02000000    89.32000000    74.94000000
   H     72.27000000    87.19000000    74.33000000
   H     73.28000000    87.48000000    73.03000000
   H     71.20000000    88.84000000    72.91000000
   H     72.49000000    90.01000000    73.15000000
   H     71.95000000    89.99000000    75.62000000
   H     70.65000000    88.82000000    75.30000000
   H     69.62000000    90.48000000    73.79000000
   H     70.78000000    91.74000000    74.32000000
   H     68.79000000    91.66000000    75.63000000
   H     69.01000000    90.25000000    76.14000000
   H     70.11000000    91.37000000    76.60000000
   N     76.22000000    86.95000000    74.57000000
   C     76.12000000    85.80000000    75.45000000
   C     74.79000000    85.07000000    75.28000000
   O     74.08000000    84.83000000    76.25000000
   C     76.61000000    86.22000000    76.84000000
   C     78.06000000    86.68000000    76.80000000
   C     78.51000000    86.99000000    78.22000000
   O     79.19000000    86.13000000    78.81000000
   O     78.27000000    88.12000000    78.71000000
   H     77.13000000    87.00000000    74.14000000
   H     76.94000000    85.13000000    75.21000000
   H     76.53000000    85.35000000    77.50000000
   H     75.97000000    86.97000000    77.29000000
   H     78.26000000    87.58000000    76.22000000
   H     78.69000000    85.91000000    76.35000000
   N     74.33000000    84.75000000    74.07000000
   C     73.00000000    84.30000000    73.72000000
   H     72.33200000    85.15900000    73.65300000
   H     73.03000000    83.78800000    72.75800000
   H     72.63400000    83.61500000    74.48500000
   H     74.95000000    84.87000000    73.28000000
  Ca     81.27000000    85.75000000    80.33000000
   O     82.01000000    87.50000000    78.19000000
   H     81.42000000    88.20000000    78.44000000
   H     82.49000000    87.84000000    77.43000000
   O     82.20000000    84.46000000    78.06000000
   H     83.06000000    84.47000000    77.64000000
   H     81.62000000    84.08000000    77.41000000
   O     80.25000000    83.30000000    80.94000000
   H     80.32000000    82.72000000    81.69000000
   H     80.19000000    82.71000000    80.18000000
   O     84.07000000    86.03000000    79.69000000
   H     84.58000000    86.83000000    79.84000000
   H     84.60000000    85.53000000    79.07000000
   O     80.24000000    85.46000000    82.87000000
   H     80.38000000    84.74000000    83.47000000
   H     79.77000000    86.12000000    83.39000000
   O     79.58000000    87.82000000    81.44000000
   H     79.41000000    88.58000000    82.00000000
   H     79.11000000    88.01000000    80.63000000

Ca 1.70



