%chk=loop2.cluster185.chk
%nprocshared=48
%mem=10GB
%nosave
#b3lyp/svp scf=(tight,noincore) Test 
#IOP(5/87=12) Density=Current Pop=(MK,readradii) iop(6/33=2) iop(6/42=6)

loop2.cluster185 

   -2  1 
   C     50.97000000    42.65000000    17.25000000
   C     52.14000000    42.52000000    16.29000000
   O     52.69000000    43.56000000    15.93000000
   H     50.09200000    42.16800000    16.82000000
   H     51.22100000    42.17000000    18.19600000
   H     50.75600000    43.70500000    17.42200000
   N     52.47000000    41.31000000    15.84000000
   C     53.56000000    41.00000000    14.93000000
   C     53.37000000    41.66000000    13.57000000
   O     52.27000000    41.73000000    13.05000000
   C     53.54000000    39.48000000    14.81000000
   C     54.87000000    38.84000000    14.42000000
   O     55.87000000    39.26000000    15.03000000
   O     54.77000000    37.87000000    13.64000000
   H     51.95000000    40.53000000    16.20000000
   H     54.47000000    41.45000000    15.34000000
   H     52.69000000    39.21000000    14.18000000
   H     53.30000000    39.06000000    15.79000000
   N     54.44000000    42.21000000    12.99000000
   C     54.50000000    42.88000000    11.71000000
   C     55.26000000    42.18000000    10.58000000
   O     54.92000000    42.37000000     9.42000000
   C     55.11000000    44.26000000    11.92000000
   H     55.35000000    42.02000000    13.39000000
   H     53.53000000    42.99000000    11.23000000
   H     54.97000000    44.91000000    11.06000000
   H     54.52000000    44.78000000    12.67000000
   H     56.15000000    44.24000000    12.25000000
   N     56.29000000    41.41000000    10.90000000
   C     57.15000000    40.69000000     9.99000000
   C     56.71000000    39.23000000     9.86000000
   O     57.14000000    38.61000000     8.89000000
   C     58.59000000    40.80000000    10.47000000
   C     58.78000000    40.32000000    11.90000000
   O     57.93000000    39.61000000    12.48000000
   O     59.77000000    40.74000000    12.54000000
   H     56.60000000    41.40000000    11.86000000
   H     57.08000000    41.14000000     9.00000000
   H     58.90000000    41.85000000    10.50000000
   H     59.23000000    40.29000000     9.75000000
   N     56.02000000    38.62000000    10.82000000
   C     55.53000000    37.25000000    10.75000000
   C     56.24000000    36.17000000    11.55000000
   O     55.76000000    35.04000000    11.50000000
   H     55.80000000    39.11000000    11.67000000
   H     55.66000000    36.99000000     9.70000000
   H     54.46000000    37.28000000    10.92000000
   N     57.34000000    36.51000000    12.22000000
   C     58.20000000    35.49000000    12.79000000
   C     57.88000000    35.16000000    14.24000000
   O     58.58000000    34.50000000    14.99000000
   C     59.64000000    35.91000000    12.51000000
   C     60.14000000    36.80000000    13.64000000
   N     61.44000000    36.86000000    13.92000000
   O     59.38000000    37.63000000    14.14000000
   H     57.64000000    37.47000000    12.29000000
   H     58.13000000    34.62000000    12.14000000
   H     59.87000000    36.38000000    11.56000000
   H     60.13000000    34.94000000    12.63000000
   H     62.12000000    36.29000000    13.43000000
   H     61.66000000    37.34000000    14.78000000
   N     56.71000000    35.61000000    14.70000000
   C     56.00000000    35.04000000    15.83000000
   C     56.47000000    35.35000000    17.24000000
   O     55.89000000    34.80000000    18.17000000
   H     56.25000000    36.26000000    14.08000000
   H     55.69000000    33.99000000    15.80000000
   H     54.99000000    35.47000000    15.77000000
   N     57.43000000    36.26000000    17.40000000
   C     57.78000000    36.80000000    18.70000000
   C     58.00000000    38.31000000    18.64000000
   O     58.44000000    38.89000000    17.64000000
   C     58.95000000    36.05000000    19.32000000
   C     58.95000000    34.53000000    19.18000000
   O     60.12000000    36.38000000    18.61000000
   H     57.97000000    36.59000000    16.61000000
   H     57.03000000    36.59000000    19.46000000
   H     59.10000000    36.37000000    20.35000000
   H     60.83000000    35.91000000    19.05000000
   H     58.05000000    34.23000000    19.71000000
   H     59.01000000    34.22000000    18.13000000
   H     59.82000000    34.10000000    19.67000000
   N     57.62000000    38.99000000    19.72000000
   C     57.51000000    40.43000000    19.73000000
   C     58.94000000    40.95000000    19.88000000
   O     59.49000000    40.73000000    20.96000000
   C     56.68000000    41.03000000    20.86000000
   C     55.39000000    40.27000000    21.13000000
   C     56.31000000    42.47000000    20.51000000
   C     54.58000000    40.52000000    22.40000000
   H     57.28000000    38.46000000    20.52000000
   H     57.08000000    40.86000000    18.83000000
   H     57.17000000    41.08000000    21.83000000
   H     55.66000000    39.21000000    21.20000000
   H     54.70000000    40.27000000    20.28000000
   H     55.75000000    42.62000000    19.59000000
   H     55.76000000    42.91000000    21.34000000
   H     57.22000000    43.07000000    20.43000000
   H     53.60000000    40.06000000    22.49000000
   H     55.13000000    40.09000000    23.23000000
   H     54.56000000    41.59000000    22.60000000
   N     59.50000000    41.61000000    18.87000000
   C     60.73000000    42.37000000    18.96000000
   C     60.37000000    43.82000000    19.23000000
   O     59.22000000    44.24000000    19.12000000
   C     61.68000000    42.07000000    17.80000000
   C     60.96000000    42.13000000    16.46000000
   O     60.88000000    43.22000000    15.85000000
   O     60.49000000    41.09000000    15.96000000
   H     58.93000000    41.72000000    18.05000000
   H     61.16000000    42.11000000    19.93000000
   H     62.07000000    41.05000000    17.85000000
   H     62.55000000    42.72000000    17.86000000
   N     61.32000000    44.69000000    19.58000000
   C     61.03000000    45.97000000    20.21000000
   C     60.28000000    46.96000000    19.33000000
   O     59.34000000    47.56000000    19.85000000
   C     62.21000000    46.54000000    20.99000000
   C     61.96000000    47.74000000    21.87000000
   C     62.51000000    49.01000000    21.69000000
   C     61.27000000    47.46000000    23.06000000
   C     62.47000000    49.96000000    22.71000000
   C     61.07000000    48.46000000    24.02000000
   C     61.70000000    49.70000000    23.86000000
   H     62.22000000    44.28000000    19.78000000
   H     60.21000000    45.78000000    20.90000000
   H     63.00000000    46.74000000    20.27000000
   H     62.55000000    45.81000000    21.72000000
   H     63.02000000    49.21000000    20.76000000
   H     60.83000000    46.48000000    23.20000000
   H     62.92000000    50.93000000    22.56000000
   H     60.42000000    48.25000000    24.85000000
   H     61.65000000    50.41000000    24.67000000
   N     60.53000000    47.19000000    18.04000000
   C     59.64000000    47.81000000    17.07000000
   C     58.18000000    47.39000000    16.97000000
   O     57.37000000    48.28000000    16.72000000
   C     60.22000000    47.58000000    15.68000000
   C     61.71000000    47.42000000    15.95000000
   C     61.59000000    46.61000000    17.24000000
   H     59.66000000    48.89000000    17.24000000
   H     59.80000000    46.69000000    15.21000000
   H     60.13000000    48.48000000    15.07000000
   H     62.15000000    46.89000000    15.10000000
   H     62.10000000    48.42000000    16.14000000
   H     61.24000000    45.63000000    16.93000000
   H     62.55000000    46.59000000    17.75000000
   N     57.81000000    46.14000000    17.21000000
   C     56.41000000    45.74000000    17.21000000
   C     55.72000000    46.06000000    18.53000000
   O     54.60000000    46.55000000    18.56000000
   C     56.19000000    44.26000000    16.92000000
   C     56.63000000    43.94000000    15.50000000
   C     56.84000000    42.44000000    15.36000000
   O     56.94000000    41.97000000    14.20000000
   O     57.07000000    41.70000000    16.34000000
   H     58.44000000    45.43000000    17.57000000
   H     55.90000000    46.27000000    16.40000000
   H     55.13000000    44.08000000    17.09000000
   H     56.68000000    43.60000000    17.63000000
   H     57.66000000    44.24000000    15.34000000
   H     55.96000000    44.35000000    14.74000000
   N     56.44000000    45.99000000    19.65000000
   C     56.06000000    46.59000000    20.92000000
   H     55.03000000    46.32000000    21.15500000
   H     56.71900000    46.22400000    21.70700000
   H     56.14400000    47.67400000    20.85000000
   H     57.35000000    45.55000000    19.59000000
  Ca     58.37000000    39.90000000    15.06000000

Ca 1.70



