%chk=loop4.cluster0.chk
%nprocshared=48
%mem=10GB
%nosave
#b3lyp/svp scf=(tight,noincore) Test 
#IOP(5/87=12) Density=Current Pop=(MK,readradii) iop(6/33=2) iop(6/42=6)

loop4.cluster0 

   -3  1 
   C     54.29000000    56.71000000    44.87000000
   C     53.45000000    57.35000000    45.97000000
   O     52.40000000    57.87000000    45.62000000
   H     55.26900000    56.44400000    45.26900000
   H     53.79100000    55.81200000    44.50700000
   H     54.41300000    57.41600000    44.04800000
   N     53.79000000    57.10000000    47.24000000
   C     53.11000000    57.63000000    48.40000000
   C     53.54000000    59.07000000    48.65000000
   O     54.72000000    59.31000000    48.93000000
   C     53.46000000    56.72000000    49.57000000
   C     52.89000000    57.23000000    50.89000000
   O     51.94000000    58.04000000    50.92000000
   O     53.29000000    56.63000000    51.91000000
   H     54.63000000    56.57000000    47.39000000
   H     52.05000000    57.57000000    48.15000000
   H     54.55000000    56.66000000    49.62000000
   H     53.01000000    55.75000000    49.33000000
   N     52.57000000    59.97000000    48.51000000
   C     52.74000000    61.41000000    48.58000000
   C     52.81000000    61.82000000    50.04000000
   O     53.55000000    62.75000000    50.37000000
   C     51.73000000    62.17000000    47.73000000
   C     51.78000000    61.70000000    46.28000000
   C     51.87000000    63.68000000    47.87000000
   C     50.63000000    62.10000000    45.36000000
   H     51.62000000    59.63000000    48.47000000
   H     53.75000000    61.71000000    48.28000000
   H     50.71000000    61.96000000    48.06000000
   H     51.85000000    60.61000000    46.23000000
   H     52.75000000    61.89000000    45.84000000
   H     52.85000000    64.06000000    47.56000000
   H     51.06000000    64.15000000    47.31000000
   H     51.80000000    64.00000000    48.91000000
   H     50.62000000    61.56000000    44.41000000
   H     49.68000000    61.86000000    45.85000000
   H     50.65000000    63.17000000    45.19000000
   N     52.17000000    61.12000000    50.98000000
   C     52.11000000    61.61000000    52.34000000
   C     53.08000000    60.80000000    53.20000000
   O     53.50000000    61.34000000    54.22000000
   C     50.71000000    61.36000000    52.89000000
   C     49.89000000    60.16000000    52.43000000
   O     49.61000000    59.24000000    53.23000000
   O     49.49000000    60.12000000    51.25000000
   H     51.49000000    60.43000000    50.69000000
   H     52.40000000    62.65000000    52.49000000
   H     50.05000000    62.18000000    52.62000000
   H     50.84000000    61.20000000    53.96000000
   N     53.54000000    59.63000000    52.75000000
   C     54.39000000    58.80000000    53.56000000
   C     53.66000000    58.02000000    54.65000000
   O     54.05000000    57.93000000    55.81000000
   H     53.22000000    59.13000000    51.93000000
   H     55.16000000    59.28000000    54.17000000
   H     55.02000000    58.11000000    53.00000000
   N     52.49000000    57.41000000    54.45000000
   C     51.81000000    56.46000000    55.30000000
   C     52.32000000    55.05000000    55.05000000
   O     51.91000000    54.13000000    55.75000000
   C     50.29000000    56.44000000    55.12000000
   C     49.69000000    56.23000000    53.74000000
   O     48.44000000    56.23000000    53.66000000
   O     50.35000000    56.11000000    52.68000000
   H     52.22000000    57.25000000    53.49000000
   H     51.95000000    56.72000000    56.35000000
   H     49.91000000    57.38000000    55.52000000
   H     49.84000000    55.64000000    55.71000000
   N     53.09000000    54.81000000    53.99000000
   C     53.40000000    53.50000000    53.46000000
   C     52.36000000    52.87000000    52.55000000
   O     52.34000000    51.64000000    52.50000000
   H     53.32000000    55.63000000    53.45000000
   H     53.66000000    52.80000000    54.26000000
   H     54.30000000    53.71000000    52.89000000
   N     51.43000000    53.62000000    51.96000000
   C     50.31000000    53.14000000    51.18000000
   C     50.07000000    53.88000000    49.87000000
   O     50.21000000    55.10000000    49.72000000
   C     49.02000000    53.09000000    52.00000000
   C     49.10000000    52.55000000    53.42000000
   C     47.78000000    52.59000000    54.18000000
   N     47.44000000    53.78000000    54.66000000
   O     47.03000000    51.62000000    54.24000000
   H     51.45000000    54.60000000    52.21000000
   H     50.49000000    52.11000000    50.87000000
   H     48.24000000    52.56000000    51.44000000
   H     48.58000000    54.08000000    51.95000000
   H     49.80000000    53.23000000    53.91000000
   H     49.43000000    51.51000000    53.41000000
   H     47.88000000    54.60000000    54.27000000
   H     46.57000000    53.82000000    55.17000000
   N     49.52000000    53.16000000    48.89000000
   C     49.07000000    53.87000000    47.71000000
   C     47.55000000    53.79000000    47.59000000
   O     47.00000000    52.69000000    47.65000000
   C     49.80000000    53.35000000    46.48000000
   C     49.40000000    53.97000000    45.14000000
   C     51.30000000    53.55000000    46.66000000
   H     49.28000000    52.21000000    49.14000000
   H     49.36000000    54.92000000    47.70000000
   H     49.61000000    52.28000000    46.44000000
   H     49.75000000    55.00000000    45.08000000
   H     49.84000000    53.38000000    44.34000000
   H     48.32000000    54.12000000    45.05000000
   H     51.56000000    52.98000000    47.55000000
   H     51.79000000    53.14000000    45.77000000
   H     51.58000000    54.59000000    46.78000000
   N     46.89000000    54.94000000    47.48000000
   C     45.48000000    54.98000000    47.13000000
   C     45.34000000    55.31000000    45.66000000
   O     46.32000000    55.58000000    44.96000000
   C     44.76000000    55.90000000    48.11000000
   C     44.83000000    57.37000000    47.71000000
   N     45.83000000    58.14000000    48.15000000
   O     44.04000000    57.94000000    46.96000000
   H     47.45000000    55.76000000    47.32000000
   H     44.97000000    54.01000000    47.19000000
   H     45.24000000    55.75000000    49.08000000
   H     43.70000000    55.65000000    48.12000000
   H     46.67000000    57.80000000    48.60000000
   H     45.78000000    59.14000000    48.04000000
   N     44.16000000    55.03000000    45.11000000
   C     43.88000000    55.23000000    43.70000000
   C     44.32000000    56.55000000    43.09000000
   O     44.98000000    56.57000000    42.05000000
   C     42.41000000    54.95000000    43.39000000
   C     42.16000000    54.85000000    41.90000000
   C     42.49000000    53.66000000    41.25000000
   C     41.63000000    55.95000000    41.22000000
   C     42.28000000    53.58000000    39.86000000
   C     41.35000000    55.85000000    39.85000000
   C     41.75000000    54.69000000    39.17000000
   O     41.69000000    54.61000000    37.81000000
   H     43.40000000    54.66000000    45.68000000
   H     44.44000000    54.44000000    43.20000000
   H     41.86000000    55.74000000    43.91000000
   H     42.20000000    53.99000000    43.85000000
   H     42.86000000    52.84000000    41.84000000
   H     41.39000000    56.82000000    41.82000000
   H     42.63000000    52.68000000    39.39000000
   H     40.93000000    56.66000000    39.28000000
   H     41.35000000    55.46000000    37.51000000
   N     44.22000000    57.66000000    43.83000000
   C     44.76000000    58.93000000    43.37000000
   C     46.26000000    58.80000000    43.13000000
   O     46.78000000    59.39000000    42.18000000
   C     44.57000000    60.05000000    44.38000000
   C     43.10000000    60.41000000    44.59000000
   C     42.94000000    61.75000000    45.29000000
   O     43.44000000    61.93000000    46.42000000
   O     42.31000000    62.63000000    44.66000000
   H     43.97000000    57.59000000    44.80000000
   H     44.37000000    59.21000000    42.39000000
   H     45.06000000    60.97000000    44.04000000
   H     45.03000000    59.83000000    45.34000000
   H     42.54000000    59.69000000    45.19000000
   H     42.60000000    60.38000000    43.63000000
   N     47.03000000    58.08000000    43.94000000
   C     48.48000000    58.02000000    43.90000000
   C     49.02000000    57.06000000    42.85000000
   O     50.06000000    57.26000000    42.22000000
   C     48.91000000    57.62000000    45.30000000
   C     48.67000000    58.70000000    46.36000000
   C     49.02000000    58.29000000    47.78000000
   O     49.68000000    58.99000000    48.57000000
   O     48.53000000    57.22000000    48.21000000
   H     46.54000000    57.44000000    44.54000000
   H     48.82000000    59.03000000    43.65000000
   H     49.98000000    57.48000000    45.44000000
   H     48.44000000    56.68000000    45.60000000
   H     47.63000000    59.02000000    46.30000000
   H     49.21000000    59.60000000    46.08000000
   N     48.32000000    55.94000000    42.66000000
   C     48.55000000    55.15000000    41.47000000
   H     49.58600000    54.81000000    41.45500000
   H     47.88500000    54.28600000    41.47200000
   H     48.35400000    55.75800000    40.58600000
   H     47.43000000    55.95000000    43.15000000
  Ca     49.43000000    57.60000000    50.74000000
   O     47.18000000    56.21000000    51.38000000
   H     47.42000000    55.93000000    52.27000000
   H     46.37000000    56.70000000    51.50000000
   O     47.05000000    58.92000000    50.60000000
   H     46.15000000    59.02000000    50.89000000
   H     47.25000000    59.75000000    50.17000000

Ca 1.70



