%chk=loop3.cluster138.chk
%nprocshared=48
%mem=10GB
%nosave
#b3lyp/svp scf=(tight,noincore) Test 
#IOP(5/87=12) Density=Current Pop=(MK,readradii) iop(6/33=2) iop(6/42=6)

loop3.cluster138 

   0  1 
   C     66.71000000    28.74000000    22.52000000
   C     67.82000000    29.72000000    22.14000000
   O     67.59000000    30.89000000    21.85000000
   H     65.82300000    28.94700000    21.92200000
   H     67.04500000    27.72000000    22.33100000
   H     66.47000000    28.85400000    23.57700000
   N     69.02000000    29.17000000    21.94000000
   C     70.20000000    29.78000000    21.37000000
   C     70.10000000    30.39000000    19.98000000
   O     71.08000000    30.89000000    19.44000000
   C     70.77000000    30.73000000    22.42000000
   C     72.20000000    31.18000000    22.17000000
   O     72.40000000    32.41000000    22.04000000
   O     73.16000000    30.38000000    22.23000000
   H     69.05000000    28.17000000    22.11000000
   H     70.93000000    29.00000000    21.15000000
   H     70.86000000    30.18000000    23.36000000
   H     70.13000000    31.59000000    22.61000000
   N     68.97000000    30.35000000    19.26000000
   C     68.90000000    30.70000000    17.86000000
   C     69.14000000    32.18000000    17.62000000
   O     69.92000000    32.44000000    16.71000000
   C     67.47000000    30.41000000    17.39000000
   C     67.30000000    29.36000000    16.30000000
   C     65.81000000    29.14000000    16.02000000
   C     65.59000000    28.29000000    14.78000000
   N     65.94000000    26.88000000    15.01000000
   H     68.21000000    29.90000000    19.75000000
   H     69.65000000    30.25000000    17.21000000
   H     66.95000000    31.33000000    17.14000000
   H     66.97000000    29.98000000    18.25000000
   H     67.76000000    28.43000000    16.63000000
   H     67.76000000    29.72000000    15.38000000
   H     65.33000000    30.10000000    15.87000000
   H     65.40000000    28.56000000    16.85000000
   H     66.21000000    28.72000000    13.99000000
   H     64.54000000    28.30000000    14.49000000
   H     65.67000000    26.29000000    14.24000000
   H     66.93000000    26.72000000    15.00000000
   H     65.57000000    26.51000000    15.87000000
   N     68.59000000    33.01000000    18.51000000
   C     68.90000000    34.42000000    18.66000000
   C     68.80000000    34.83000000    20.13000000
   O     67.73000000    34.57000000    20.67000000
   C     68.03000000    35.27000000    17.75000000
   C     68.03000000    36.75000000    18.10000000
   O     66.92000000    37.31000000    18.27000000
   O     69.08000000    37.42000000    18.04000000
   H     67.92000000    32.66000000    19.18000000
   H     69.92000000    34.66000000    18.37000000
   H     67.00000000    34.92000000    17.81000000
   H     68.33000000    35.07000000    16.72000000
   N     69.76000000    35.54000000    20.72000000
   C     69.67000000    36.15000000    22.03000000
   C     68.81000000    37.41000000    22.05000000
   O     68.34000000    37.81000000    20.98000000
   H     70.56000000    35.80000000    20.17000000
   H     70.67000000    36.30000000    22.43000000
   H     69.15000000    35.44000000    22.68000000
   N     68.63000000    37.99000000    23.23000000
   C     68.11000000    39.34000000    23.32000000
   C     69.04000000    40.37000000    23.96000000
   O     68.57000000    41.44000000    24.34000000
   C     66.79000000    39.23000000    24.07000000
   C     65.85000000    38.13000000    23.59000000
   N     65.20000000    38.32000000    22.44000000
   O     65.74000000    37.02000000    24.11000000
   H     69.09000000    37.55000000    24.01000000
   H     67.88000000    39.75000000    22.33000000
   H     66.26000000    40.18000000    24.04000000
   H     67.10000000    39.18000000    25.11000000
   H     65.47000000    39.10000000    21.86000000
   H     64.69000000    37.48000000    22.21000000
   N     70.33000000    40.07000000    24.12000000
   C     71.27000000    40.93000000    24.81000000
   C     70.81000000    41.21000000    26.23000000
   O     70.47000000    40.27000000    26.95000000
   H     70.62000000    39.12000000    23.92000000
   H     71.43000000    41.87000000    24.27000000
   H     72.22000000    40.40000000    24.85000000
   N     70.90000000    42.43000000    26.77000000
   C     70.29000000    42.96000000    27.96000000
   C     68.81000000    42.59000000    28.05000000
   O     68.32000000    42.76000000    29.16000000
   C     71.07000000    42.58000000    29.21000000
   C     72.55000000    42.84000000    29.04000000
   C     73.48000000    41.83000000    28.76000000
   C     73.00000000    44.16000000    29.15000000
   C     74.83000000    42.06000000    28.48000000
   C     74.36000000    44.44000000    28.94000000
   C     75.23000000    43.41000000    28.54000000
   O     76.56000000    43.61000000    28.29000000
   H     71.31000000    43.10000000    26.14000000
   H     70.38000000    44.05000000    28.03000000
   H     70.91000000    41.51000000    29.38000000
   H     70.70000000    43.15000000    30.06000000
   H     73.03000000    40.86000000    28.62000000
   H     72.36000000    45.00000000    29.39000000
   H     75.48000000    41.22000000    28.29000000
   H     74.75000000    45.45000000    28.95000000
   H     76.57000000    44.57000000    28.20000000
   N     68.13000000    42.16000000    26.98000000
   C     66.69000000    41.99000000    26.90000000
   C     66.07000000    43.37000000    26.78000000
   O     65.46000000    43.59000000    25.74000000
   C     66.23000000    40.93000000    27.89000000
   C     66.84000000    39.56000000    27.60000000
   C     64.72000000    40.83000000    27.65000000
   C     67.15000000    38.72000000    28.84000000
   H     68.65000000    42.23000000    26.12000000
   H     66.50000000    41.50000000    25.94000000
   H     66.38000000    41.17000000    28.94000000
   H     67.81000000    39.65000000    27.12000000
   H     66.21000000    38.98000000    26.93000000
   H     64.17000000    41.69000000    28.00000000
   H     64.47000000    40.61000000    26.61000000
   H     64.37000000    40.02000000    28.29000000
   H     66.30000000    38.53000000    29.49000000
   H     67.48000000    37.71000000    28.55000000
   H     67.81000000    39.42000000    29.35000000
   N     66.07000000    44.24000000    27.79000000
   C     65.46000000    45.56000000    27.70000000
   C     63.97000000    45.57000000    27.41000000
   O     63.53000000    46.60000000    26.92000000
   C     65.58000000    46.44000000    28.94000000
   O     64.95000000    45.78000000    30.01000000
   H     66.53000000    43.97000000    28.65000000
   H     65.97000000    46.19000000    26.96000000
   H     65.20000000    47.42000000    28.65000000
   H     66.63000000    46.58000000    29.21000000
   H     65.34000000    46.04000000    30.85000000
   N     63.17000000    44.52000000    27.60000000
   C     61.80000000    44.36000000    27.15000000
   C     61.57000000    44.46000000    25.65000000
   O     60.46000000    44.73000000    25.19000000
   C     60.77000000    45.07000000    28.03000000
   H     63.45000000    43.76000000    28.21000000
   H     61.66000000    43.30000000    27.33000000
   H     60.94000000    46.14000000    27.97000000
   H     59.72000000    44.89000000    27.79000000
   H     60.85000000    44.97000000    29.11000000
   N     62.59000000    44.14000000    24.85000000
   C     62.53000000    43.98000000    23.41000000
   C     62.36000000    42.53000000    22.97000000
   O     62.60000000    41.58000000    23.71000000
   C     63.62000000    44.85000000    22.81000000
   H     63.49000000    43.92000000    25.25000000
   H     61.55000000    44.30000000    23.06000000
   H     63.31000000    45.89000000    22.76000000
   H     64.52000000    44.87000000    23.42000000
   H     63.75000000    44.47000000    21.79000000
   N     61.95000000    42.36000000    21.71000000
   C     61.78000000    41.13000000    20.96000000
   C     60.74000000    40.24000000    21.63000000
   O     60.59000000    39.10000000    21.19000000
   C     63.12000000    40.45000000    20.71000000
   C     64.01000000    41.29000000    19.80000000
   C     65.23000000    40.48000000    19.39000000
   O     65.96000000    39.96000000    20.27000000
   O     65.54000000    40.30000000    18.19000000
   H     61.93000000    43.22000000    21.18000000
   H     61.32000000    41.38000000    20.00000000
   H     62.85000000    39.54000000    20.17000000
   H     63.65000000    40.34000000    21.66000000
   H     64.36000000    42.23000000    20.21000000
   H     63.48000000    41.58000000    18.88000000
   N     59.86000000    40.70000000    22.52000000
   C     58.98000000    39.89000000    23.34000000
   H     58.02500000    39.76200000    22.83000000
   H     59.43500000    38.91400000    23.50800000
   H     58.81700000    40.38500000    24.29700000
   H     60.02000000    41.68000000    22.74000000
  Ca     68.08000000    39.52000000    18.91000000
   O     67.75000000    39.69000000    16.16000000
   H     66.86000000    39.81000000    15.83000000
   H     68.24000000    40.42000000    15.80000000
   O     70.50000000    39.81000000    20.38000000
   H     70.96000000    39.13000000    20.87000000
   H     70.96000000    40.62000000    20.60000000
   O     68.32000000    42.09000000    17.59000000
   H     68.25000000    43.02000000    17.82000000
   H     68.32000000    42.08000000    16.63000000
   O     70.32000000    40.11000000    17.55000000
   H     70.89000000    40.88000000    17.49000000
   H     70.92000000    39.36000000    17.54000000
   O     68.38000000    41.68000000    20.57000000
   H     69.27000000    42.03000000    20.47000000
   H     67.91000000    42.36000000    21.04000000

Ca 1.70



