%chk=loop2.cluster226.chk
%nprocshared=48
%mem=10GB
%nosave
#b3lyp/svp scf=(tight,noincore) Test 
#IOP(5/87=12) Density=Current Pop=(MK,readradii) iop(6/33=2) iop(6/42=6)

loop2.cluster226 

   -2  1 
   C     60.08000000    47.38000000    10.63000000
   C     61.10000000    46.44000000     9.99000000
   O     60.80000000    45.30000000     9.67000000
   H     59.15300000    46.83700000    10.81600000
   H     60.47500000    47.75800000    11.57300000
   H     59.88300000    48.21500000     9.95800000
   N     62.32000000    46.95000000     9.84000000
   C     63.52000000    46.29000000     9.36000000
   C     63.54000000    46.13000000     7.84000000
   O     64.43000000    46.61000000     7.14000000
   C     64.75000000    46.88000000    10.04000000
   C     64.99000000    48.36000000     9.75000000
   O     66.13000000    48.83000000     9.94000000
   O     64.13000000    49.03000000     9.14000000
   H     62.34000000    47.95000000     9.98000000
   H     63.64000000    45.26000000     9.72000000
   H     65.61000000    46.31000000     9.68000000
   H     64.70000000    46.76000000    11.12000000
   N     62.54000000    45.47000000     7.27000000
   C     62.39000000    45.13000000     5.87000000
   C     60.92000000    45.16000000     5.47000000
   O     60.14000000    44.51000000     6.17000000
   C     63.04000000    43.83000000     5.42000000
   H     61.70000000    45.21000000     7.77000000
   H     62.93000000    45.89000000     5.30000000
   H     64.07000000    43.71000000     5.76000000
   H     62.53000000    42.90000000     5.67000000
   H     63.02000000    43.82000000     4.33000000
   N     60.49000000    45.88000000     4.43000000
   C     61.25000000    46.63000000     3.45000000
   C     61.39000000    48.10000000     3.80000000
   O     60.65000000    48.66000000     4.61000000
   C     60.69000000    46.43000000     2.05000000
   C     59.31000000    47.07000000     1.94000000
   O     59.19000000    48.05000000     1.17000000
   O     58.31000000    46.50000000     2.43000000
   H     59.51000000    45.75000000     4.25000000
   H     62.25000000    46.19000000     3.38000000
   H     60.58000000    45.36000000     1.85000000
   H     61.31000000    46.86000000     1.27000000
   N     62.37000000    48.75000000     3.15000000
   C     62.71000000    50.13000000     3.42000000
   C     62.86000000    50.94000000     2.14000000
   O     63.99000000    51.26000000     1.78000000
   H     62.99000000    48.23000000     2.54000000
   H     63.72000000    50.13000000     3.84000000
   H     62.13000000    50.70000000     4.14000000
   N     61.80000000    51.48000000     1.52000000
   C     60.40000000    51.31000000     1.85000000
   C     60.10000000    52.06000000     3.14000000
   O     60.67000000    53.10000000     3.45000000
   C     59.51000000    51.72000000     0.69000000
   C     59.88000000    51.16000000    -0.68000000
   N     59.79000000    49.85000000    -0.89000000
   O     60.36000000    51.92000000    -1.52000000
   H     61.93000000    52.14000000     0.76000000
   H     60.19000000    50.26000000     2.08000000
   H     59.53000000    52.81000000     0.68000000
   H     58.49000000    51.48000000     1.01000000
   H     59.55000000    49.13000000    -0.22000000
   H     60.13000000    49.48000000    -1.76000000
   N     59.19000000    51.46000000     3.92000000
   C     59.10000000    51.74000000     5.34000000
   C     57.73000000    51.52000000     5.95000000
   O     57.68000000    51.23000000     7.15000000
   H     58.88000000    50.60000000     3.49000000
   H     59.38000000    52.78000000     5.50000000
   H     59.81000000    51.15000000     5.93000000
   N     56.65000000    51.56000000     5.17000000
   C     55.30000000    51.44000000     5.67000000
   C     54.58000000    50.13000000     5.37000000
   O     54.86000000    49.42000000     4.40000000
   C     54.46000000    52.50000000     4.96000000
   C     54.88000000    53.90000000     5.39000000
   O     54.51000000    52.41000000     3.55000000
   H     56.79000000    51.74000000     4.18000000
   H     55.43000000    51.67000000     6.72000000
   H     53.43000000    52.40000000     5.31000000
   H     55.40000000    52.67000000     3.31000000
   H     54.90000000    53.96000000     6.48000000
   H     55.89000000    54.20000000     5.10000000
   H     54.17000000    54.60000000     4.95000000
   N     53.70000000    49.84000000     6.33000000
   C     53.02000000    48.57000000     6.48000000
   C     51.93000000    48.41000000     5.44000000
   O     51.12000000    49.29000000     5.14000000
   C     52.58000000    48.32000000     7.92000000
   C     53.55000000    47.44000000     8.71000000
   C     52.31000000    49.61000000     8.68000000
   C     55.03000000    47.80000000     8.57000000
   H     53.61000000    50.45000000     7.12000000
   H     53.82000000    47.89000000     6.16000000
   H     51.65000000    47.77000000     7.79000000
   H     53.58000000    46.40000000     8.39000000
   H     53.36000000    47.45000000     9.79000000
   H     51.83000000    49.38000000     9.63000000
   H     53.25000000    50.07000000     8.98000000
   H     51.71000000    50.30000000     8.09000000
   H     55.19000000    48.86000000     8.74000000
   H     55.59000000    47.16000000     9.24000000
   H     55.40000000    47.54000000     7.57000000
   N     51.87000000    47.21000000     4.85000000
   C     50.85000000    46.73000000     3.94000000
   C     50.76000000    45.21000000     3.93000000
   O     51.77000000    44.52000000     3.98000000
   C     51.05000000    47.14000000     2.49000000
   C     52.41000000    46.80000000     1.90000000
   O     53.38000000    47.50000000     2.28000000
   O     52.50000000    45.78000000     1.18000000
   H     52.60000000    46.53000000     5.02000000
   H     49.91000000    47.10000000     4.33000000
   H     51.02000000    48.23000000     2.40000000
   H     50.26000000    46.69000000     1.89000000
   N     49.54000000    44.66000000     3.92000000
   C     49.17000000    43.26000000     3.86000000
   C     49.62000000    42.51000000     5.10000000
   O     49.47000000    43.01000000     6.22000000
   C     47.64000000    43.24000000     3.82000000
   C     46.90000000    41.95000000     3.58000000
   C     46.76000000    41.12000000     4.71000000
   C     46.53000000    41.46000000     2.33000000
   C     46.26000000    39.83000000     4.51000000
   C     46.03000000    40.16000000     2.15000000
   C     45.84000000    39.34000000     3.27000000
   H     48.75000000    45.29000000     3.94000000
   H     49.62000000    42.89000000     2.94000000
   H     47.26000000    43.99000000     3.12000000
   H     47.31000000    43.57000000     4.81000000
   H     47.03000000    41.40000000     5.72000000
   H     46.79000000    41.97000000     1.41000000
   H     46.36000000    39.25000000     5.42000000
   H     45.88000000    39.94000000     1.10000000
   H     45.33000000    38.40000000     3.17000000
   N     50.40000000    41.44000000     4.95000000
   C     50.75000000    40.72000000     6.15000000
   C     51.84000000    41.30000000     7.04000000
   O     52.01000000    40.93000000     8.19000000
   C     51.08000000    39.32000000     5.63000000
   C     50.41000000    39.20000000     4.26000000
   C     50.57000000    40.63000000     3.75000000
   H     49.83000000    40.58000000     6.72000000
   H     52.13000000    39.08000000     5.51000000
   H     50.76000000    38.61000000     6.39000000
   H     50.92000000    38.42000000     3.70000000
   H     49.38000000    38.85000000     4.25000000
   H     51.55000000    40.65000000     3.29000000
   H     49.78000000    40.85000000     3.03000000
   N     52.57000000    42.32000000     6.55000000
   C     53.35000000    43.24000000     7.35000000
   C     52.54000000    43.92000000     8.45000000
   O     53.06000000    43.92000000     9.56000000
   C     53.99000000    44.17000000     6.32000000
   C     55.38000000    44.68000000     6.70000000
   C     56.05000000    45.52000000     5.63000000
   O     57.22000000    45.31000000     5.25000000
   O     55.34000000    46.36000000     5.04000000
   H     52.38000000    42.45000000     5.57000000
   H     54.07000000    42.67000000     7.94000000
   H     53.33000000    45.03000000     6.24000000
   H     54.14000000    43.66000000     5.37000000
   H     55.90000000    43.74000000     6.84000000
   H     55.40000000    45.25000000     7.64000000
   N     51.34000000    44.39000000     8.13000000
   C     50.50000000    45.06000000     9.10000000
   H     49.53000000    44.56500000     9.14300000
   H     50.97200000    45.01800000    10.08100000
   H     50.36400000    46.10100000     8.80600000
   H     50.88000000    44.15000000     7.26000000
  Ca     55.91000000    47.36000000     2.86000000
   O     57.44000000    49.59000000     2.54000000
   H     58.10000000    49.04000000     2.12000000
   H     57.01000000    50.04000000     1.81000000
   O     58.05000000    47.83000000     4.95000000
   H     58.95000000    47.99000000     5.23000000
   H     57.84000000    46.97000000     5.33000000
   O     55.61000000    44.87000000     1.82000000
   H     54.80000000    44.59000000     1.39000000
   H     56.13000000    44.07000000     1.89000000
   O     54.90000000    50.01000000     1.57000000
   H     54.19000000    49.59000000     1.08000000
   H     54.47000000    50.36000000     2.35000000
   O     56.53000000    47.62000000     0.33000000
   H     56.48000000    47.65000000    -0.63000000
   H     57.46000000    47.48000000     0.52000000

Ca 1.70



