%chk=loop1.cluster82.chk
%nprocshared=48
%mem=10GB
%nosave
#b3lyp/svp scf=(tight,noincore) Test 
#IOP(5/87=12) Density=Current Pop=(MK,readradii) iop(6/33=2) iop(6/42=6)

loop1.cluster82 

   0  1 
   C     42.25000000    47.67000000    47.58000000
   C     43.25000000    48.35000000    46.64000000
   O     44.01000000    47.71000000    45.92000000
   H     41.31000000    47.50600000    47.05300000
   H     42.65300000    46.71200000    47.90900000
   H     42.07400000    48.30700000    48.44600000
   N     43.16000000    49.68000000    46.61000000
   C     44.01000000    50.51000000    45.79000000
   C     44.05000000    50.14000000    44.31000000
   O     45.09000000    50.14000000    43.66000000
   C     45.39000000    50.67000000    46.43000000
   C     46.16000000    51.88000000    45.91000000
   O     45.50000000    52.92000000    45.72000000
   O     47.33000000    51.83000000    45.47000000
   H     42.53000000    50.14000000    47.25000000
   H     43.57000000    51.51000000    45.78000000
   H     45.92000000    49.76000000    46.16000000
   H     45.28000000    50.75000000    47.52000000
   N     42.89000000    49.82000000    43.74000000
   C     42.78000000    49.61000000    42.31000000
   C     42.69000000    50.92000000    41.54000000
   O     43.27000000    51.00000000    40.46000000
   C     41.60000000    48.66000000    42.10000000
   C     41.76000000    47.30000000    42.76000000
   C     40.51000000    46.43000000    42.61000000
   C     40.92000000    45.08000000    43.19000000
   N     39.94000000    44.00000000    43.10000000
   H     42.03000000    49.86000000    44.26000000
   H     43.66000000    49.05000000    41.99000000
   H     41.53000000    48.50000000    41.02000000
   H     40.70000000    49.15000000    42.46000000
   H     42.10000000    47.30000000    43.80000000
   H     42.53000000    46.82000000    42.15000000
   H     40.37000000    46.38000000    41.53000000
   H     39.64000000    46.97000000    42.97000000
   H     41.23000000    45.31000000    44.22000000
   H     41.75000000    44.66000000    42.63000000
   H     39.92000000    43.59000000    42.17000000
   H     40.22000000    43.23000000    43.69000000
   H     39.03000000    44.35000000    43.39000000
   N     42.11000000    51.98000000    42.10000000
   C     42.01000000    53.28000000    41.47000000
   C     42.33000000    54.43000000    42.40000000
   O     42.98000000    55.36000000    41.92000000
   C     40.62000000    53.36000000    40.83000000
   C     40.50000000    54.53000000    39.87000000
   O     39.39000000    54.67000000    39.30000000
   O     41.49000000    55.20000000    39.47000000
   H     41.65000000    51.82000000    42.99000000
   H     42.81000000    53.27000000    40.72000000
   H     39.97000000    53.72000000    41.62000000
   H     40.27000000    52.44000000    40.37000000
   N     42.29000000    54.24000000    43.72000000
   C     43.07000000    55.02000000    44.66000000
   C     42.77000000    56.52000000    44.69000000
   O     43.66000000    57.33000000    44.96000000
   H     41.88000000    53.37000000    44.03000000
   H     44.12000000    54.83000000    44.46000000
   H     42.94000000    54.54000000    45.63000000
   N     41.48000000    56.81000000    44.54000000
   C     40.95000000    58.15000000    44.38000000
   C     40.96000000    58.96000000    45.66000000
   O     40.12000000    58.79000000    46.54000000
   C     39.59000000    58.01000000    43.71000000
   C     39.59000000    57.03000000    42.54000000
   O     40.48000000    57.02000000    41.67000000
   O     38.71000000    56.15000000    42.58000000
   H     40.87000000    56.00000000    44.59000000
   H     41.51000000    58.71000000    43.63000000
   H     39.24000000    58.96000000    43.30000000
   H     38.75000000    57.68000000    44.32000000
   N     41.93000000    59.88000000    45.79000000
   C     42.06000000    60.86000000    46.85000000
   C     42.60000000    60.27000000    48.14000000
   O     43.26000000    60.95000000    48.93000000
   H     42.69000000    59.92000000    45.14000000
   H     41.02000000    61.13000000    47.07000000
   H     42.64000000    61.69000000    46.45000000
   N     42.42000000    58.97000000    48.41000000
   C     42.91000000    58.19000000    49.53000000
   C     42.09000000    58.54000000    50.77000000
   O     40.89000000    58.77000000    50.76000000
   C     43.04000000    56.69000000    49.31000000
   C     41.68000000    56.11000000    48.95000000
   O     43.97000000    56.41000000    48.29000000
   H     41.75000000    58.58000000    47.76000000
   H     43.91000000    58.52000000    49.79000000
   H     43.33000000    56.31000000    50.29000000
   H     44.16000000    55.47000000    48.30000000
   H     41.68000000    55.03000000    49.10000000
   H     40.85000000    56.68000000    49.38000000
   H     41.64000000    56.03000000    47.86000000
   N     42.86000000    58.56000000    51.86000000
   C     42.41000000    58.83000000    53.22000000
   C     43.22000000    59.98000000    53.80000000
   O     42.65000000    60.60000000    54.70000000
   C     42.25000000    57.56000000    54.04000000
   C     43.62000000    57.07000000    54.50000000
   C     41.41000000    56.50000000    53.34000000
   C     43.60000000    55.72000000    55.20000000
   H     43.84000000    58.38000000    51.70000000
   H     41.41000000    59.26000000    53.18000000
   H     41.72000000    57.79000000    54.97000000
   H     43.96000000    57.79000000    55.25000000
   H     44.35000000    57.00000000    53.69000000
   H     42.01000000    56.00000000    52.57000000
   H     41.12000000    55.77000000    54.10000000
   H     40.46000000    56.76000000    52.87000000
   H     44.45000000    55.69000000    55.89000000
   H     42.73000000    55.59000000    55.84000000
   H     43.70000000    54.92000000    54.47000000
   N     44.43000000    60.23000000    53.32000000
   C     45.35000000    61.28000000    53.72000000
   C     46.75000000    60.68000000    53.80000000
   O     47.04000000    59.72000000    53.10000000
   C     45.28000000    62.46000000    52.76000000
   C     45.75000000    62.13000000    51.34000000
   O     43.97000000    62.99000000    52.69000000
   H     44.82000000    59.53000000    52.70000000
   H     45.04000000    61.57000000    54.72000000
   H     45.97000000    63.18000000    53.19000000
   H     43.85000000    63.27000000    53.60000000
   H     46.84000000    62.20000000    51.37000000
   H     45.41000000    61.17000000    50.96000000
   H     45.32000000    62.86000000    50.66000000
   N     47.57000000    61.22000000    54.70000000
   C     48.98000000    60.88000000    54.75000000
   C     49.53000000    60.88000000    56.17000000
   O     50.13000000    59.85000000    56.46000000
   C     49.76000000    61.82000000    53.83000000
   C     51.26000000    61.54000000    53.77000000
   O     49.61000000    63.16000000    54.25000000
   H     47.22000000    61.90000000    55.37000000
   H     49.11000000    59.83000000    54.50000000
   H     49.35000000    61.68000000    52.83000000
   H     50.12000000    63.76000000    53.69000000
   H     51.74000000    62.23000000    53.07000000
   H     51.67000000    61.65000000    54.77000000
   H     51.51000000    60.52000000    53.47000000
   N     49.45000000    61.96000000    56.95000000
   C     50.08000000    62.14000000    58.25000000
   C     49.26000000    62.85000000    59.32000000
   O     48.46000000    63.75000000    59.07000000
   C     51.46000000    62.74000000    58.02000000
   C     51.38000000    64.22000000    57.65000000
   C     51.47000000    65.25000000    58.76000000
   C     52.83000000    65.09000000    59.43000000
   N     52.96000000    66.01000000    60.58000000
   H     49.12000000    62.84000000    56.58000000
   H     50.34000000    61.17000000    58.65000000
   H     51.88000000    62.15000000    57.20000000
   H     52.14000000    62.47000000    58.83000000
   H     50.42000000    64.41000000    57.16000000
   H     52.11000000    64.43000000    56.86000000
   H     50.66000000    65.28000000    59.49000000
   H     51.33000000    66.23000000    58.31000000
   H     53.57000000    65.28000000    58.65000000
   H     52.98000000    64.06000000    59.76000000
   H     52.37000000    65.83000000    61.38000000
   H     53.85000000    65.92000000    61.05000000
   H     52.84000000    66.94000000    60.22000000
   N     49.36000000    62.40000000    60.57000000
   C     48.67000000    63.07000000    61.65000000
   C     47.15000000    62.99000000    61.73000000
   O     46.48000000    63.75000000    62.43000000
   C     49.22000000    62.55000000    62.98000000
   C     50.56000000    63.25000000    63.20000000
   C     50.50000000    64.77000000    63.31000000
   O     49.57000000    65.36000000    63.89000000
   O     51.35000000    65.46000000    62.71000000
   H     50.18000000    61.84000000    60.75000000
   H     48.88000000    64.13000000    61.57000000
   H     49.24000000    61.46000000    63.05000000
   H     48.64000000    62.88000000    63.84000000
   H     51.19000000    62.95000000    62.37000000
   H     51.04000000    62.87000000    64.09000000
   N     46.39000000    61.99000000    61.29000000
   C     46.75000000    60.78000000    60.57000000
   H     47.74900000    60.46300000    60.87000000
   H     46.03400000    59.99200000    60.80200000
   H     46.73900000    60.97800000    59.49800000
   H     45.41000000    62.17000000    61.45000000
  Ca     42.52000000    57.38000000    40.38000000
   O     44.20000000    58.32000000    42.27000000
   H     45.01000000    57.87000000    42.51000000
   H     44.14000000    59.05000000    42.88000000
   O     40.64000000    59.09000000    39.04000000
   H     39.74000000    58.79000000    38.91000000
   H     40.83000000    59.60000000    38.25000000
   O     44.78000000    56.42000000    39.54000000
   H     45.44000000    55.83000000    39.91000000
   H     45.05000000    56.53000000    38.63000000
   O     43.80000000    59.74000000    39.42000000
   H     44.50000000    59.73000000    38.77000000
   H     43.80000000    60.63000000    39.76000000
   O     42.84000000    57.29000000    37.63000000
   H     42.14000000    56.76000000    37.26000000
   H     42.87000000    58.08000000    37.09000000

Ca 1.70



