%chk=loop2.cluster238.chk
%nprocshared=48
%mem=10GB
%nosave
#b3lyp/svp scf=(tight,noincore) Test 
#IOP(5/87=12) Density=Current Pop=(MK,readradii) iop(6/33=2) iop(6/42=6)

loop2.cluster238 

   -2  1 
   C     76.87000000    51.08000000    56.40000000
   C     76.21000000    51.11000000    55.03000000
   O     75.19000000    50.46000000    54.83000000
   H     77.76500000    51.70200000    56.38500000
   H     76.17500000    51.46200000    57.14700000
   H     77.14500000    50.05500000    56.64900000
   N     76.69000000    51.97000000    54.13000000
   C     76.23000000    52.18000000    52.77000000
   C     75.00000000    53.07000000    52.63000000
   O     75.12000000    54.30000000    52.59000000
   C     77.45000000    52.75000000    52.05000000
   C     77.08000000    53.03000000    50.59000000
   O     77.38000000    54.11000000    50.05000000
   O     76.35000000    52.23000000    49.96000000
   H     77.50000000    52.46000000    54.47000000
   H     75.95000000    51.23000000    52.32000000
   H     78.32000000    52.12000000    52.22000000
   H     77.67000000    53.70000000    52.52000000
   N     73.83000000    52.49000000    52.39000000
   C     72.52000000    53.11000000    52.38000000
   C     71.40000000    52.16000000    52.78000000
   O     71.58000000    50.95000000    52.65000000
   C     72.28000000    53.53000000    50.93000000
   H     73.88000000    51.55000000    52.04000000
   H     72.52000000    53.96000000    53.07000000
   H     72.90000000    54.42000000    50.86000000
   H     72.60000000    52.75000000    50.25000000
   H     71.25000000    53.83000000    50.73000000
   N     70.31000000    52.58000000    53.41000000
   C     69.73000000    53.91000000    53.40000000
   C     70.19000000    54.77000000    54.57000000
   O     70.61000000    54.19000000    55.57000000
   C     68.21000000    53.86000000    53.33000000
   C     67.52000000    53.39000000    54.61000000
   O     66.85000000    52.34000000    54.68000000
   O     67.59000000    54.03000000    55.68000000
   H     69.77000000    51.86000000    53.88000000
   H     70.03000000    54.45000000    52.50000000
   H     67.85000000    53.32000000    52.45000000
   H     67.77000000    54.85000000    53.25000000
   N     70.25000000    56.09000000    54.41000000
   C     70.94000000    57.00000000    55.31000000
   C     72.46000000    56.96000000    55.28000000
   O     73.03000000    56.34000000    54.38000000
   H     70.08000000    56.51000000    53.51000000
   H     70.48000000    56.84000000    56.29000000
   H     70.73000000    58.04000000    55.05000000
   N     73.23000000    57.69000000    56.08000000
   C     72.87000000    58.50000000    57.23000000
   C     73.56000000    58.07000000    58.51000000
   O     73.72000000    58.82000000    59.47000000
   C     73.15000000    59.96000000    56.89000000
   C     72.56000000    60.90000000    57.93000000
   N     71.27000000    60.89000000    58.28000000
   O     73.22000000    61.82000000    58.42000000
   H     74.21000000    57.60000000    55.84000000
   H     71.81000000    58.44000000    57.46000000
   H     72.65000000    60.25000000    55.97000000
   H     74.22000000    60.18000000    56.86000000
   H     70.54000000    60.28000000    57.93000000
   H     71.02000000    61.71000000    58.81000000
   N     74.07000000    56.84000000    58.54000000
   C     74.92000000    56.26000000    59.56000000
   C     74.10000000    55.33000000    60.45000000
   O     74.65000000    54.36000000    60.96000000
   H     73.70000000    56.15000000    57.90000000
   H     75.42000000    57.00000000    60.20000000
   H     75.64000000    55.56000000    59.13000000
   N     72.79000000    55.52000000    60.61000000
   C     71.82000000    54.97000000    61.54000000
   C     71.20000000    53.69000000    60.99000000
   O     70.84000000    53.56000000    59.82000000
   C     70.77000000    55.99000000    61.97000000
   C     71.38000000    57.18000000    62.72000000
   O     70.19000000    56.57000000    60.82000000
   H     72.46000000    56.29000000    60.06000000
   H     72.35000000    54.58000000    62.41000000
   H     70.02000000    55.45000000    62.53000000
   H     69.41000000    56.09000000    60.55000000
   H     71.66000000    57.96000000    62.01000000
   H     70.66000000    57.61000000    63.43000000
   H     72.23000000    56.92000000    63.35000000
   N     71.01000000    52.65000000    61.80000000
   C     70.37000000    51.41000000    61.42000000
   C     69.03000000    51.25000000    62.12000000
   O     68.81000000    51.72000000    63.23000000
   C     71.33000000    50.23000000    61.57000000
   C     72.46000000    50.35000000    60.56000000
   C     71.82000000    50.18000000    63.02000000
   C     72.02000000    50.59000000    59.12000000
   H     71.30000000    52.75000000    62.76000000
   H     70.06000000    51.41000000    60.37000000
   H     70.82000000    49.28000000    61.44000000
   H     73.18000000    49.53000000    60.60000000
   H     73.10000000    51.19000000    60.82000000
   H     72.48000000    51.00000000    63.29000000
   H     70.97000000    50.37000000    63.67000000
   H     72.31000000    49.22000000    63.18000000
   H     72.93000000    50.45000000    58.53000000
   H     71.24000000    49.94000000    58.73000000
   H     71.61000000    51.57000000    58.90000000
   N     68.14000000    50.44000000    61.53000000
   C     66.81000000    50.03000000    61.92000000
   C     66.45000000    48.70000000    61.29000000
   O     67.14000000    48.31000000    60.35000000
   C     65.80000000    51.10000000    61.52000000
   C     65.97000000    51.71000000    60.14000000
   O     66.79000000    52.61000000    59.86000000
   O     65.39000000    51.02000000    59.26000000
   H     68.46000000    50.08000000    60.64000000
   H     66.80000000    49.80000000    62.98000000
   H     66.01000000    51.92000000    62.22000000
   H     64.85000000    50.59000000    61.69000000
   N     65.40000000    47.98000000    61.71000000
   C     65.03000000    46.71000000    61.14000000
   C     66.18000000    45.70000000    61.15000000
   O     66.90000000    45.62000000    62.14000000
   C     63.84000000    46.27000000    61.98000000
   C     63.44000000    44.85000000    61.66000000
   C     63.95000000    43.75000000    62.37000000
   C     62.46000000    44.60000000    60.69000000
   C     63.58000000    42.45000000    62.01000000
   C     62.03000000    43.33000000    60.32000000
   C     62.57000000    42.27000000    61.05000000
   H     64.78000000    48.55000000    62.27000000
   H     64.62000000    46.81000000    60.13000000
   H     62.96000000    46.86000000    61.74000000
   H     64.13000000    46.29000000    63.03000000
   H     64.81000000    43.87000000    63.02000000
   H     61.97000000    45.41000000    60.17000000
   H     64.08000000    41.60000000    62.44000000
   H     61.24000000    43.15000000    59.60000000
   H     62.34000000    41.25000000    60.78000000
   N     66.25000000    44.85000000    60.12000000
   C     67.27000000    43.83000000    59.96000000
   C     68.60000000    44.29000000    59.38000000
   O     69.42000000    43.42000000    59.09000000
   C     66.56000000    42.82000000    59.06000000
   C     65.60000000    43.59000000    58.15000000
   C     65.40000000    44.87000000    58.95000000
   H     67.45000000    43.30000000    60.89000000
   H     67.26000000    42.24000000    58.47000000
   H     65.94000000    42.15000000    59.66000000
   H     66.14000000    43.78000000    57.23000000
   H     64.67000000    43.04000000    58.02000000
   H     65.71000000    45.70000000    58.31000000
   H     64.34000000    44.89000000    59.22000000
   N     68.82000000    45.58000000    59.12000000
   C     69.93000000    46.17000000    58.40000000
   C     71.21000000    46.18000000    59.21000000
   O     72.27000000    46.59000000    58.73000000
   C     69.61000000    47.61000000    58.02000000
   C     68.41000000    47.80000000    57.10000000
   C     67.82000000    49.21000000    57.10000000
   O     68.45000000    50.13000000    57.66000000
   O     66.80000000    49.47000000    56.42000000
   H     68.19000000    46.27000000    59.51000000
   H     70.07000000    45.50000000    57.55000000
   H     70.44000000    47.92000000    57.38000000
   H     69.40000000    48.16000000    58.93000000
   H     67.61000000    47.11000000    57.37000000
   H     68.74000000    47.50000000    56.11000000
   N     71.24000000    45.79000000    60.49000000
   C     72.31000000    45.89000000    61.46000000
   H     73.14000000    46.44900000    61.02800000
   H     71.94800000    46.40700000    62.34900000
   H     72.64800000    44.89000000    61.73300000
   H     70.40000000    45.41000000    60.91000000
  Ca     66.75000000    52.02000000    57.28000000
   O     69.21000000    53.13000000    57.80000000
   H     69.60000000    53.13000000    58.67000000
   H     69.91000000    53.43000000    57.22000000

Ca 1.70



