%chk=loop3.cluster168.chk
%nprocshared=48
%mem=10GB
%nosave
#b3lyp/svp scf=(tight,noincore) Test 
#IOP(5/87=12) Density=Current Pop=(MK,readradii) iop(6/33=2) iop(6/42=6)

loop3.cluster168 

   0  1 
   C     94.27000000    56.61000000    31.59000000
   C     94.94000000    55.25000000    31.61000000
   O     94.82000000    54.47000000    32.55000000
   H     93.31200000    56.55000000    32.10600000
   H     94.90800000    57.33700000    32.09300000
   H     94.10700000    56.92000000    30.55800000
   N     95.77000000    54.95000000    30.61000000
   C     96.49000000    53.70000000    30.54000000
   C     97.59000000    53.43000000    31.56000000
   O     98.43000000    54.32000000    31.68000000
   C     97.05000000    53.53000000    29.13000000
   C     97.87000000    52.27000000    28.90000000
   O     97.28000000    51.17000000    28.81000000
   O     99.12000000    52.23000000    28.82000000
   H     95.78000000    55.65000000    29.87000000
   H     95.75000000    52.92000000    30.74000000
   H     97.73000000    54.37000000    28.96000000
   H     96.19000000    53.41000000    28.48000000
   N     97.71000000    52.22000000    32.11000000
   C     98.64000000    51.93000000    33.18000000
   C    100.12000000    52.11000000    32.90000000
   O    100.89000000    52.30000000    33.83000000
   C     98.38000000    50.52000000    33.71000000
   C     98.70000000    49.33000000    32.82000000
   C     98.31000000    47.99000000    33.45000000
   C     96.84000000    47.63000000    33.26000000
   N     96.58000000    46.20000000    33.48000000
   H     97.01000000    51.53000000    31.90000000
   H     98.42000000    52.59000000    34.02000000
   H     97.32000000    50.47000000    33.96000000
   H     98.88000000    50.33000000    34.66000000
   H     99.73000000    49.20000000    32.47000000
   H     98.22000000    49.43000000    31.84000000
   H     98.60000000    47.93000000    34.50000000
   H     98.90000000    47.16000000    33.07000000
   H     96.63000000    47.75000000    32.20000000
   H     96.17000000    48.24000000    33.87000000
   H     97.29000000    45.63000000    33.05000000
   H     96.58000000    46.04000000    34.48000000
   H     95.68000000    45.87000000    33.16000000
   N    100.51000000    51.94000000    31.63000000
   C    101.88000000    52.17000000    31.22000000
   C    101.99000000    53.35000000    30.26000000
   O    103.07000000    53.67000000    29.77000000
   C    102.41000000    50.87000000    30.62000000
   C    101.41000000    50.30000000    29.62000000
   O    101.68000000    50.41000000    28.41000000
   O    100.48000000    49.55000000    30.01000000
   H     99.78000000    51.69000000    30.98000000
   H    102.55000000    52.28000000    32.07000000
   H    102.52000000    50.10000000    31.38000000
   H    103.37000000    50.97000000    30.11000000
   N    100.93000000    54.15000000    30.15000000
   C    100.84000000    55.41000000    29.44000000
   C    100.90000000    55.33000000    27.93000000
   O    101.45000000    56.20000000    27.26000000
   H    100.08000000    53.84000000    30.60000000
   H    101.74000000    55.93000000    29.77000000
   H     99.96000000    55.96000000    29.79000000
   N    100.46000000    54.26000000    27.25000000
   C    100.52000000    54.05000000    25.82000000
   C     99.39000000    53.10000000    25.44000000
   O     99.21000000    52.06000000    26.06000000
   C    101.88000000    53.45000000    25.47000000
   C    102.09000000    53.37000000    23.96000000
   N    101.85000000    52.17000000    23.43000000
   O    102.27000000    54.32000000    23.20000000
   H    100.01000000    53.57000000    27.83000000
   H    100.29000000    54.99000000    25.31000000
   H    102.02000000    52.45000000    25.89000000
   H    102.62000000    54.14000000    25.87000000
   H    101.90000000    51.38000000    24.07000000
   H    102.08000000    52.11000000    22.45000000
   N     98.77000000    53.47000000    24.32000000
   C     97.58000000    52.82000000    23.81000000
   C     97.46000000    51.32000000    23.56000000
   O     96.36000000    50.81000000    23.72000000
   H     98.99000000    54.35000000    23.87000000
   H     97.27000000    53.22000000    22.85000000
   H     96.81000000    52.95000000    24.56000000
   N     98.58000000    50.67000000    23.22000000
   C     98.63000000    49.26000000    22.89000000
   C     98.36000000    48.39000000    24.11000000
   O     98.96000000    48.65000000    25.15000000
   C    100.01000000    48.89000000    22.37000000
   C    100.13000000    49.22000000    20.90000000
   C     99.61000000    48.26000000    20.03000000
   C    100.72000000    50.40000000    20.43000000
   C     99.63000000    48.41000000    18.64000000
   C    100.80000000    50.60000000    19.04000000
   C    100.30000000    49.58000000    18.21000000
   O    100.46000000    49.74000000    16.87000000
   H     99.47000000    51.15000000    23.21000000
   H     97.80000000    49.11000000    22.20000000
   H    100.37000000    47.92000000    22.70000000
   H    100.78000000    49.52000000    22.83000000
   H     99.14000000    47.37000000    20.43000000
   H    100.95000000    51.18000000    21.13000000
   H     99.08000000    47.78000000    17.96000000
   H    101.30000000    51.47000000    18.64000000
   H    100.96000000    50.52000000    16.58000000
   N     97.53000000    47.35000000    23.97000000
   C     97.33000000    46.21000000    24.84000000
   C     98.64000000    45.50000000    25.14000000
   O     99.77000000    45.95000000    24.98000000
   C     96.57000000    46.53000000    26.12000000
   C     96.35000000    45.30000000    26.99000000
   C     95.28000000    47.32000000    25.88000000
   C     95.36000000    45.42000000    28.14000000
   H     97.07000000    47.23000000    23.08000000
   H     96.72000000    45.56000000    24.19000000
   H     97.27000000    47.22000000    26.59000000
   H     97.32000000    45.19000000    27.48000000
   H     96.07000000    44.46000000    26.36000000
   H     95.07000000    47.81000000    26.83000000
   H     95.41000000    48.10000000    25.13000000
   H     94.50000000    46.66000000    25.50000000
   H     95.45000000    44.51000000    28.74000000
   H     95.66000000    46.25000000    28.77000000
   H     94.37000000    45.70000000    27.78000000
   N     98.53000000    44.19000000    25.42000000
   C     99.63000000    43.32000000    25.79000000
   C     99.36000000    41.82000000    25.70000000
   O    100.28000000    41.10000000    26.08000000
   C    100.25000000    43.76000000    27.11000000
   O     99.58000000    43.20000000    28.22000000
   H     97.61000000    43.85000000    25.62000000
   H    100.44000000    43.51000000    25.10000000
   H    100.32000000    44.85000000    27.19000000
   H    101.29000000    43.41000000    27.12000000
   H    100.03000000    43.38000000    29.05000000
   N     98.10000000    41.44000000    25.48000000
   C     97.64000000    40.08000000    25.65000000
   C     98.05000000    39.35000000    26.92000000
   O     98.78000000    38.37000000    26.79000000
   C     97.81000000    39.40000000    24.29000000
   H     97.54000000    42.11000000    24.97000000
   H     96.57000000    40.22000000    25.73000000
   H     97.48000000    40.10000000    23.51000000
   H     98.88000000    39.27000000    24.11000000
   H     97.34000000    38.43000000    24.17000000
   N     97.59000000    39.68000000    28.13000000
   C     96.40000000    40.47000000    28.38000000
   C     95.11000000    39.72000000    28.09000000
   O     95.18000000    38.49000000    28.10000000
   C     96.47000000    40.97000000    29.82000000
   H     98.05000000    39.17000000    28.87000000
   H     96.40000000    41.31000000    27.69000000
   H     95.64000000    41.66000000    29.97000000
   H     96.56000000    40.10000000    30.47000000
   H     97.39000000    41.53000000    30.01000000
   N     93.93000000    40.30000000    27.87000000
   C     93.55000000    41.70000000    27.97000000
   C     92.72000000    42.08000000    26.75000000
   O     92.85000000    43.19000000    26.24000000
   C     92.78000000    41.91000000    29.27000000
   C     92.66000000    43.38000000    29.67000000
   C     91.85000000    43.52000000    30.95000000
   O     90.63000000    43.26000000    30.95000000
   O     92.46000000    43.58000000    32.04000000
   H     93.19000000    39.63000000    27.77000000
   H     94.39000000    42.40000000    27.97000000
   H     93.17000000    41.37000000    30.13000000
   H     91.77000000    41.57000000    29.08000000
   H     92.22000000    44.03000000    28.91000000
   H     93.70000000    43.68000000    29.76000000
   N     91.77000000    41.21000000    26.43000000
   C     90.74000000    41.52000000    25.46000000
   H     89.89400000    41.98500000    25.96600000
   H     91.13800000    42.20600000    24.71300000
   H     90.41100000    40.60200000    24.97200000
   H     91.62000000    40.42000000    27.04000000
  Ca     99.18000000    49.91000000    27.59000000
   O     96.72000000    50.34000000    26.34000000
   H     96.16000000    51.00000000    26.73000000
   H     96.31000000    50.14000000    25.50000000
   O    100.01500000    47.35000000    27.53000000
   H    100.09500000    46.82000000    26.74000000
   H     99.95500000    46.72000000    28.24000000
   O    101.36500000    49.95000000    25.91000000
   H    101.77500000    50.16000000    26.75000000
   H    101.66500000    49.06000000    25.71000000
   O     97.77000000    48.29000000    29.41000000
   H     97.27000000    48.67000000    30.13000000
   H     98.02000000    47.42000000    29.73000000

Ca 1.70



