%chk=loop2.cluster209.chk
%nprocshared=48
%mem=10GB
%nosave
#b3lyp/svp scf=(tight,noincore) Test 
#IOP(5/87=12) Density=Current Pop=(MK,readradii) iop(6/33=2) iop(6/42=6)

loop2.cluster209 

   -2  1 
   C     86.35000000    50.26000000    60.63000000
   C     86.04000000    50.29000000    59.14000000
   O     85.03000000    49.73000000    58.71000000
   H     87.14700000    50.97000000    60.84900000
   H     85.45700000    50.53200000    61.19300000
   H     86.66900000    49.25700000    60.91500000
   N     86.84000000    50.96000000    58.31000000
   C     86.67000000    51.09000000    56.88000000
   C     85.35000000    51.74000000    56.53000000
   O     85.01000000    52.85000000    56.95000000
   C     87.84000000    51.85000000    56.26000000
   C     87.96000000    51.79000000    54.74000000
   O     88.18000000    52.79000000    54.03000000
   O     87.84000000    50.64000000    54.25000000
   H     87.56000000    51.51000000    58.76000000
   H     86.61000000    50.04000000    56.58000000
   H     88.74000000    51.44000000    56.70000000
   H     87.76000000    52.88000000    56.60000000
   N     84.73000000    51.06000000    55.56000000
   C     83.42000000    51.46000000    55.08000000
   C     82.53000000    50.26000000    55.39000000
   O     82.98000000    49.14000000    55.58000000
   C     83.56000000    51.74000000    53.59000000
   H     85.12000000    50.16000000    55.32000000
   H     83.04000000    52.34000000    55.60000000
   H     83.95000000    50.80000000    53.21000000
   H     82.58000000    51.93000000    53.14000000
   H     84.22000000    52.59000000    53.45000000
   N     81.20000000    50.37000000    55.36000000
   C     80.31000000    51.47000000    55.06000000
   C     80.38000000    52.54000000    56.14000000
   O     81.04000000    52.27000000    57.14000000
   C     78.88000000    50.95000000    54.90000000
   C     78.41000000    50.12000000    56.09000000
   O     78.73000000    48.93000000    56.32000000
   O     77.72000000    50.65000000    56.98000000
   H     80.67000000    49.54000000    55.58000000
   H     80.51000000    51.90000000    54.08000000
   H     78.87000000    50.38000000    53.97000000
   H     78.17000000    51.76000000    54.72000000
   N     79.90000000    53.76000000    55.89000000
   C     79.95000000    54.87000000    56.82000000
   C     81.27000000    55.62000000    56.86000000
   O     82.04000000    55.47000000    55.91000000
   H     79.51000000    53.94000000    54.97000000
   H     79.89000000    54.48000000    57.84000000
   H     79.17000000    55.60000000    56.60000000
   N     81.74000000    56.34000000    57.88000000
   C     80.94000000    56.97000000    58.91000000
   C     81.55000000    56.87000000    60.30000000
   O     80.84000000    57.15000000    61.26000000
   C     80.69000000    58.45000000    58.64000000
   C     80.00000000    58.74000000    57.31000000
   N     78.67000000    58.80000000    57.39000000
   O     80.61000000    59.00000000    56.28000000
   H     82.62000000    56.76000000    57.64000000
   H     79.97000000    56.48000000    58.92000000
   H     81.66000000    58.95000000    58.57000000
   H     80.15000000    58.91000000    59.47000000
   H     78.26000000    58.50000000    58.26000000
   H     78.13000000    59.07000000    56.57000000
   N     82.77000000    56.34000000    60.45000000
   C     83.46000000    56.24000000    61.72000000
   C     83.10000000    55.10000000    62.66000000
   O     83.77000000    55.04000000    63.69000000
   H     83.19000000    56.21000000    59.54000000
   H     83.21000000    57.17000000    62.24000000
   H     84.52000000    56.16000000    61.51000000
   N     82.15000000    54.21000000    62.38000000
   C     81.58000000    53.28000000    63.34000000
   C     81.29000000    51.91000000    62.74000000
   O     81.23000000    51.71000000    61.53000000
   C     80.36000000    53.90000000    64.00000000
   C     80.68000000    55.17000000    64.78000000
   O     79.33000000    54.10000000    63.06000000
   H     81.63000000    54.27000000    61.51000000
   H     82.29000000    53.20000000    64.16000000
   H     80.03000000    53.18000000    64.76000000
   H     78.64000000    53.54000000    63.43000000
   H     81.53000000    54.90000000    65.40000000
   H     81.06000000    55.96000000    64.14000000
   H     79.83000000    55.47000000    65.40000000
   N     81.07000000    50.97000000    63.66000000
   C     80.55000000    49.65000000    63.36000000
   C     79.15000000    49.34000000    63.87000000
   O     78.64000000    50.07000000    64.71000000
   C     81.48000000    48.57000000    63.90000000
   C     82.81000000    48.47000000    63.15000000
   C     81.72000000    48.78000000    65.39000000
   C     82.81000000    48.12000000    61.67000000
   H     81.24000000    51.21000000    64.62000000
   H     80.47000000    49.50000000    62.28000000
   H     81.00000000    47.61000000    63.73000000
   H     83.43000000    47.76000000    63.70000000
   H     83.40000000    49.38000000    63.25000000
   H     82.23000000    47.95000000    65.88000000
   H     82.48000000    49.56000000    65.43000000
   H     80.90000000    49.11000000    66.02000000
   H     83.81000000    47.97000000    61.26000000
   H     82.15000000    47.25000000    61.62000000
   H     82.35000000    48.92000000    61.09000000
   N     78.45000000    48.29000000    63.42000000
   C     77.08000000    47.99000000    63.80000000
   C     76.94000000    46.48000000    63.74000000
   O     77.51000000    45.76000000    62.92000000
   C     76.09000000    48.74000000    62.92000000
   C     76.46000000    48.70000000    61.45000000
   O     77.30000000    49.54000000    61.04000000
   O     76.01000000    47.83000000    60.67000000
   H     78.88000000    47.52000000    62.93000000
   H     76.93000000    48.28000000    64.84000000
   H     75.98000000    49.78000000    63.20000000
   H     75.04000000    48.43000000    63.00000000
   N     76.13000000    45.95000000    64.65000000
   C     75.69000000    44.57000000    64.58000000
   C     76.84000000    43.57000000    64.62000000
   O     77.67000000    43.64000000    65.52000000
   C     74.71000000    44.21000000    65.69000000
   C     74.22000000    42.78000000    65.73000000
   C     75.01000000    41.70000000    66.14000000
   C     72.93000000    42.61000000    65.21000000
   C     74.44000000    40.43000000    65.98000000
   C     72.37000000    41.33000000    65.15000000
   C     73.14000000    40.22000000    65.53000000
   H     75.74000000    46.50000000    65.41000000
   H     75.07000000    44.45000000    63.69000000
   H     73.89000000    44.92000000    65.72000000
   H     75.25000000    44.36000000    66.63000000
   H     76.07000000    41.79000000    66.36000000
   H     72.28000000    43.41000000    64.89000000
   H     75.14000000    39.62000000    66.14000000
   H     71.33000000    41.29000000    64.86000000
   H     72.75000000    39.21000000    65.47000000
   N     76.91000000    42.56000000    63.75000000
   C     77.95000000    41.55000000    63.80000000
   C     79.33000000    42.08000000    63.44000000
   O     80.34000000    41.38000000    63.53000000
   C     77.49000000    40.50000000    62.79000000
   C     76.84000000    41.39000000    61.74000000
   C     76.07000000    42.41000000    62.57000000
   H     77.91000000    41.13000000    64.80000000
   H     78.25000000    39.85000000    62.33000000
   H     76.80000000    39.84000000    63.32000000
   H     77.68000000    41.70000000    61.12000000
   H     76.10000000    40.90000000    61.12000000
   H     76.07000000    43.32000000    61.97000000
   H     75.11000000    42.01000000    62.86000000
   N     79.47000000    43.30000000    62.91000000
   C     80.64000000    43.91000000    62.31000000
   C     81.71000000    44.34000000    63.29000000
   O     82.70000000    44.98000000    62.94000000
   C     80.24000000    45.00000000    61.32000000
   C     79.54000000    44.38000000    60.12000000
   C     78.89000000    45.32000000    59.12000000
   O     78.82000000    46.55000000    59.32000000
   O     78.41000000    44.80000000    58.09000000
   H     78.65000000    43.87000000    63.09000000
   H     81.13000000    43.15000000    61.69000000
   H     81.15000000    45.50000000    60.98000000
   H     79.58000000    45.68000000    61.86000000
   H     78.93000000    43.52000000    60.40000000
   H     80.40000000    43.95000000    59.60000000
   N     81.62000000    43.95000000    64.56000000
   C     82.52000000    44.26000000    65.66000000
   H     83.40000000    44.77500000    65.27500000
   H     82.01000000    44.90200000    66.37800000
   H     82.82600000    43.33600000    66.15100000
   H     80.85000000    43.36000000    64.84000000
  Ca     77.54000000    48.54000000    58.69000000
   O     79.94000000    49.68000000    59.53000000
   H     80.75000000    50.10000000    59.26000000
   H     79.68000000    50.15000000    60.32000000
   O     76.51000000    46.45000000    57.42000000
   H     75.95000000    45.91000000    56.87000000
   H     77.31000000    45.94000000    57.53000000

Ca 1.70



