%chk=loop3.cluster82.chk
%nprocshared=48
%mem=10GB
%nosave
#b3lyp/svp scf=(tight,noincore) Test 
#IOP(5/87=12) Density=Current Pop=(MK,readradii) iop(6/33=2) iop(6/42=6)

loop3.cluster82 

   0  1 
   C    104.66000000    43.64000000    14.94000000
   C    106.09000000    43.27000000    14.60000000
   O    106.40000000    42.20000000    14.08000000
   H    104.00400000    42.79900000    14.71300000
   H    104.58900000    43.88000000    16.00100000
   H    104.35800000    44.50500000    14.35000000
   N    107.03000000    44.15000000    14.97000000
   C    108.45000000    44.00000000    14.75000000
   C    109.17000000    43.09000000    15.73000000
   O    108.87000000    43.06000000    16.92000000
   C    109.20000000    45.31000000    14.53000000
   C    108.74000000    46.63000000    15.13000000
   O    107.78000000    46.65000000    15.93000000
   O    109.42000000    47.66000000    14.95000000
   H    106.73000000    44.94000000    15.53000000
   H    108.58000000    43.42000000    13.83000000
   H    109.14000000    45.49000000    13.45000000
   H    110.23000000    45.11000000    14.82000000
   N    110.18000000    42.36000000    15.24000000
   C    111.19000000    41.71000000    16.06000000
   C    111.75000000    40.52000000    15.28000000
   O    112.55000000    39.74000000    15.79000000
   C    112.31000000    42.71000000    16.30000000
   C    113.12000000    42.52000000    17.58000000
   C    113.73000000    43.85000000    18.03000000
   C    114.62000000    43.62000000    19.26000000
   N    115.88000000    42.93000000    18.94000000
   H    110.23000000    42.48000000    14.24000000
   H    110.80000000    41.30000000    16.99000000
   H    111.99000000    43.75000000    16.29000000
   H    113.00000000    42.72000000    15.46000000
   H    113.95000000    41.83000000    17.41000000
   H    112.55000000    42.04000000    18.37000000
   H    112.91000000    44.55000000    18.15000000
   H    114.35000000    44.26000000    17.24000000
   H    114.13000000    43.01000000    20.02000000
   H    114.97000000    44.58000000    19.63000000
   H    115.75000000    42.00000000    18.57000000
   H    116.44000000    43.39000000    18.23000000
   H    116.41000000    42.76000000    19.78000000
   N    111.37000000    40.30000000    14.02000000
   C    111.90000000    39.26000000    13.15000000
   C    111.82000000    39.58000000    11.66000000
   O    112.84000000    39.72000000    10.99000000
   C    111.33000000    37.90000000    13.52000000
   C    109.85000000    37.86000000    13.87000000
   O    109.06000000    38.65000000    13.30000000
   O    109.45000000    37.07000000    14.75000000
   H    110.57000000    40.80000000    13.67000000
   H    112.95000000    39.16000000    13.41000000
   H    111.93000000    37.52000000    14.35000000
   H    111.55000000    37.20000000    12.71000000
   N    110.59000000    39.69000000    11.14000000
   C    110.28000000    39.84000000     9.74000000
   C    108.78000000    39.82000000     9.43000000
   O    107.96000000    39.81000000    10.34000000
   H    109.82000000    39.39000000    11.72000000
   H    110.84000000    39.11000000     9.17000000
   H    110.52000000    40.84000000     9.36000000
   N    108.25000000    39.60000000     8.23000000
   C    108.90000000    39.26000000     6.99000000
   C    107.82000000    38.73000000     6.06000000
   O    106.86000000    39.45000000     5.78000000
   C    109.59000000    40.51000000     6.45000000
   C    110.29000000    40.29000000     5.12000000
   N    110.00000000    41.12000000     4.11000000
   O    111.13000000    39.40000000     5.00000000
   H    107.24000000    39.54000000     8.27000000
   H    109.62000000    38.46000000     7.16000000
   H    110.33000000    40.90000000     7.15000000
   H    108.87000000    41.32000000     6.33000000
   H    109.31000000    41.85000000     4.23000000
   H    110.39000000    40.94000000     3.20000000
   N    108.01000000    37.56000000     5.44000000
   C    108.90000000    36.46000000     5.73000000
   C    108.52000000    35.61000000     6.93000000
   O    108.39000000    36.16000000     8.01000000
   H    107.23000000    37.40000000     4.81000000
   H    109.91000000    36.83000000     5.91000000
   H    109.05000000    35.82000000     4.86000000
   N    108.63000000    34.28000000     6.85000000
   C    108.13000000    33.45000000     7.93000000
   C    108.98000000    32.20000000     8.15000000
   O    109.38000000    31.50000000     7.22000000
   C    106.68000000    33.07000000     7.66000000
   C    105.61000000    34.14000000     7.65000000
   C    105.15000000    34.73000000     8.84000000
   C    104.99000000    34.47000000     6.45000000
   C    104.21000000    35.76000000     8.79000000
   C    104.04000000    35.50000000     6.40000000
   C    103.58000000    36.11000000     7.58000000
   O    102.58000000    37.04000000     7.54000000
   H    109.03000000    33.78000000     6.07000000
   H    108.18000000    33.96000000     8.90000000
   H    106.30000000    32.43000000     8.46000000
   H    106.59000000    32.44000000     6.77000000
   H    105.62000000    34.42000000     9.76000000
   H    105.34000000    33.95000000     5.56000000
   H    103.91000000    36.18000000     9.74000000
   H    103.50000000    35.69000000     5.49000000
   H    102.39000000    37.29000000     6.63000000
   N    109.13000000    31.80000000     9.41000000
   C    109.89000000    30.60000000     9.71000000
   C    109.00000000    29.37000000     9.73000000
   O    109.47000000    28.26000000     9.50000000
   C    110.73000000    30.72000000    10.98000000
   C    110.09000000    30.13000000    12.24000000
   C    112.14000000    30.17000000    10.82000000
   C    110.83000000    30.42000000    13.54000000
   H    108.69000000    32.37000000    10.12000000
   H    110.54000000    30.44000000     8.85000000
   H    111.03000000    31.76000000    11.14000000
   H    110.09000000    29.05000000    12.07000000
   H    109.07000000    30.51000000    12.30000000
   H    112.66000000    30.41000000     9.89000000
   H    112.82000000    30.49000000    11.61000000
   H    112.16000000    29.08000000    10.94000000
   H    111.71000000    29.77000000    13.55000000
   H    111.09000000    31.46000000    13.71000000
   H    110.32000000    30.14000000    14.46000000
   N    107.71000000    29.55000000    10.06000000
   C    106.60000000    28.62000000    10.05000000
   C    106.13000000    28.07000000    11.39000000
   O    105.12000000    27.38000000    11.42000000
   C    105.51000000    29.24000000     9.17000000
   O    105.10000000    30.40000000     9.85000000
   H    107.37000000    30.50000000    10.13000000
   H    107.00000000    27.77000000     9.50000000
   H    104.66000000    28.56000000     9.08000000
   H    105.87000000    29.53000000     8.19000000
   H    104.17000000    30.50000000     9.64000000
   N    106.87000000    28.36000000    12.47000000
   C    106.56000000    27.96000000    13.82000000
   C    106.49000000    29.21000000    14.69000000
   O    107.35000000    30.08000000    14.58000000
   C    107.58000000    26.97000000    14.36000000
   H    107.70000000    28.91000000    12.31000000
   H    105.59000000    27.46000000    13.77000000
   H    108.01000000    26.52000000    13.46000000
   H    108.41000000    27.43000000    14.90000000
   H    107.05000000    26.32000000    15.05000000
   N    105.48000000    29.31000000    15.56000000
   C    105.20000000    30.36000000    16.52000000
   C    105.01000000    31.74000000    15.89000000
   O    104.76000000    32.71000000    16.60000000
   C    106.26000000    30.30000000    17.62000000
   H    104.85000000    28.52000000    15.58000000
   H    104.26000000    30.20000000    17.03000000
   H    106.20000000    29.31000000    18.08000000
   H    107.25000000    30.54000000    17.24000000
   H    106.06000000    30.99000000    18.44000000
   N    105.03000000    31.85000000    14.56000000
   C    104.89000000    33.11000000    13.87000000
   C    103.51000000    33.74000000    14.01000000
   O    103.34000000    34.95000000    14.02000000
   C    105.25000000    32.94000000    12.39000000
   C    106.65000000    32.41000000    12.11000000
   C    107.74000000    33.45000000    12.35000000
   O    108.10000000    33.72000000    13.51000000
   O    108.37000000    33.96000000    11.40000000
   H    105.12000000    31.05000000    13.95000000
   H    105.65000000    33.84000000    14.18000000
   H    105.24000000    33.96000000    12.00000000
   H    104.55000000    32.38000000    11.77000000
   H    106.63000000    32.10000000    11.07000000
   H    106.82000000    31.53000000    12.73000000
   N    102.48000000    32.90000000    14.18000000
   C    101.11000000    33.19000000    13.80000000
   H    100.50100000    33.30100000    14.69700000
   H    101.08000000    34.11500000    13.22400000
   H    100.71900000    32.37200000    13.19500000
   H    102.78000000    31.95000000    14.04000000
  Ca    106.68100000    38.35000000    12.31000000
   O    104.25100000    37.03000000    12.75000000
   H    103.73100000    37.65000000    13.26000000
   H    104.02100000    36.17000000    13.11000000
   O    107.04100000    36.23000000    13.94000000
   H    107.72100000    36.45000000    14.57000000
   H    107.20100000    35.30000000    13.73000000
   O    105.50100000    40.61000000    12.04000000
   H    104.91100000    41.04000000    11.42000000
   H    105.75100000    41.31000000    12.65000000
   O    107.99100000    36.66000000    10.84000000
   H    108.10100000    35.75000000    11.14000000
   H    108.61100000    36.75000000    10.12000000
   O    105.53100000    38.15000000    10.01000000
   H    104.76100000    38.51000000     9.56000000
   H    106.07100000    37.78000000     9.31000000
   O    105.85100000    38.95000000    14.75000000
   H    105.18100000    38.47000000    15.24000000
   H    106.19100000    39.59000000    15.38000000

Ca 1.70



