%chk=loop3.cluster17.chk
%nprocshared=48
%mem=10GB
%nosave
#b3lyp/svp scf=(tight,noincore) Test 
#IOP(5/87=12) Density=Current Pop=(MK,readradii) iop(6/33=2) iop(6/42=6)

loop3.cluster17 

   0  1 
   C     48.02000000    44.71000000    43.91000000
   C     47.19000000    45.06000000    45.14000000
   O     47.76000000    44.86000000    46.21000000
   H     49.00500000    44.36400000    44.22300000
   H     47.52100000    43.92200000    43.34600000
   H     48.12900000    45.59400000    43.28100000
   N     45.93000000    45.51000000    45.06000000
   C     45.03000000    45.40000000    46.19000000
   C     44.37000000    44.03000000    46.27000000
   O     43.32000000    43.74000000    45.71000000
   C     44.05000000    46.58000000    46.18000000
   C     43.17000000    46.67000000    47.42000000
   O     42.20000000    47.45000000    47.43000000
   O     43.40000000    45.96000000    48.43000000
   H     45.54000000    45.98000000    44.25000000
   H     45.58000000    45.66000000    47.09000000
   H     43.39000000    46.45000000    45.32000000
   H     44.56000000    47.54000000    46.12000000
   N     44.94000000    43.15000000    47.09000000
   C     44.67000000    41.72000000    47.14000000
   C     43.48000000    41.34000000    48.01000000
   O     42.92000000    40.27000000    47.79000000
   C     45.91000000    41.01000000    47.67000000
   C     47.05000000    41.01000000    46.66000000
   C     47.06000000    39.90000000    45.61000000
   C     45.80000000    39.79000000    44.75000000
   N     45.71000000    38.56000000    43.96000000
   H     45.69000000    43.40000000    47.71000000
   H     44.40000000    41.30000000    46.18000000
   H     45.71000000    39.97000000    47.91000000
   H     46.22000000    41.52000000    48.59000000
   H     48.02000000    40.96000000    47.16000000
   H     47.04000000    41.95000000    46.11000000
   H     47.13000000    38.92000000    46.08000000
   H     47.90000000    40.07000000    44.93000000
   H     45.58000000    40.72000000    44.22000000
   H     45.08000000    39.68000000    45.56000000
   H     46.27000000    38.62000000    43.12000000
   H     45.96000000    37.73000000    44.47000000
   H     44.77000000    38.37000000    43.65000000
   N     42.95000000    42.12000000    48.96000000
   C     41.72000000    41.96000000    49.71000000
   C     40.79000000    43.10000000    49.35000000
   O     39.87000000    43.32000000    50.13000000
   C     42.08000000    41.87000000    51.20000000
   C     42.81000000    43.08000000    51.76000000
   O     43.18000000    43.99000000    50.98000000
   O     43.09000000    43.08000000    52.98000000
   H     43.35000000    43.03000000    49.08000000
   H     41.10000000    41.11000000    49.43000000
   H     42.66000000    40.96000000    51.32000000
   H     41.25000000    41.68000000    51.88000000
   N     40.96000000    43.84000000    48.25000000
   C     40.09000000    44.89000000    47.74000000
   C     39.61000000    45.99000000    48.66000000
   O     38.54000000    46.54000000    48.40000000
   H     41.65000000    43.52000000    47.59000000
   H     39.26000000    44.47000000    47.17000000
   H     40.63000000    45.39000000    46.94000000
   N     40.36000000    46.32000000    49.71000000
   C     39.96000000    47.26000000    50.74000000
   C     40.08000000    48.74000000    50.38000000
   O     39.53000000    49.53000000    51.15000000
   C     40.66000000    46.85000000    52.03000000
   C     42.01000000    47.51000000    52.32000000
   N     42.18000000    48.13000000    53.48000000
   O     42.85000000    47.65000000    51.43000000
   H     41.21000000    45.77000000    49.80000000
   H     38.90000000    47.17000000    50.98000000
   H     40.70000000    45.77000000    52.10000000
   H     39.97000000    47.25000000    52.77000000
   H     41.55000000    47.95000000    54.25000000
   H     43.09000000    48.55000000    53.63000000
   N     40.82000000    49.14000000    49.35000000
   C     41.05000000    50.50000000    48.90000000
   C     42.51000000    50.94000000    48.86000000
   O     42.81000000    51.99000000    48.29000000
   H     41.25000000    48.35000000    48.87000000
   H     40.69000000    51.24000000    49.61000000
   H     40.69000000    50.65000000    47.88000000
   N     43.42000000    50.12000000    49.39000000
   C     44.82000000    50.48000000    49.53000000
   C     45.68000000    49.32000000    49.06000000
   O     45.29000000    48.17000000    49.24000000
   C     45.18000000    50.71000000    50.99000000
   C     44.56000000    52.00000000    51.49000000
   C     44.83000000    53.24000000    50.92000000
   C     43.52000000    51.84000000    52.42000000
   C     44.06000000    54.37000000    51.24000000
   C     42.69000000    52.93000000    52.71000000
   C     42.92000000    54.15000000    52.04000000
   O     42.13000000    55.23000000    52.32000000
   H     43.11000000    49.20000000    49.68000000
   H     45.06000000    51.31000000    48.88000000
   H     46.27000000    50.79000000    51.10000000
   H     44.84000000    49.82000000    51.52000000
   H     45.73000000    53.31000000    50.33000000
   H     43.30000000    50.85000000    52.79000000
   H     44.21000000    55.30000000    50.72000000
   H     41.97000000    52.92000000    53.51000000
   H     41.37000000    55.09000000    52.88000000
   N     46.82000000    49.73000000    48.48000000
   C     47.95000000    48.83000000    48.35000000
   C     48.84000000    48.87000000    49.59000000
   O     49.05000000    49.94000000    50.16000000
   C     48.74000000    49.04000000    47.06000000
   C     47.93000000    48.70000000    45.81000000
   C     50.13000000    48.40000000    47.08000000
   C     48.40000000    49.30000000    44.49000000
   H     47.02000000    50.70000000    48.28000000
   H     47.59000000    47.80000000    48.36000000
   H     48.93000000    50.11000000    46.99000000
   H     46.89000000    49.00000000    45.88000000
   H     47.88000000    47.62000000    45.87000000
   H     50.74000000    48.70000000    47.93000000
   H     50.03000000    47.32000000    47.02000000
   H     50.61000000    48.61000000    46.12000000
   H     49.33000000    48.93000000    44.05000000
   H     47.74000000    49.05000000    43.66000000
   H     48.44000000    50.39000000    44.51000000
   N     49.30000000    47.69000000    50.02000000
   C     50.33000000    47.58000000    51.04000000
   C     51.63000000    47.03000000    50.48000000
   O     51.65000000    46.30000000    49.49000000
   C     49.82000000    46.76000000    52.22000000
   O     50.85000000    46.19000000    53.00000000
   H     49.04000000    46.83000000    49.55000000
   H     50.43000000    48.59000000    51.43000000
   H     49.06000000    46.00000000    52.02000000
   H     49.24000000    47.45000000    52.83000000
   H     50.63000000    46.20000000    53.94000000
   N     52.78000000    47.39000000    51.06000000
   C     54.09000000    46.86000000    50.76000000
   C     54.27000000    45.35000000    50.65000000
   O     55.08000000    44.94000000    49.83000000
   C     55.15000000    47.32000000    51.76000000
   H     52.66000000    47.97000000    51.87000000
   H     54.41000000    47.21000000    49.78000000
   H     54.87000000    46.92000000    52.74000000
   H     56.13000000    46.89000000    51.58000000
   H     55.14000000    48.40000000    51.84000000
   N     53.43000000    44.55000000    51.32000000
   C     53.33000000    43.11000000    51.36000000
   C     52.54000000    42.59000000    50.18000000
   O     52.79000000    41.51000000    49.63000000
   C     52.66000000    42.77000000    52.69000000
   H     52.78000000    45.03000000    51.93000000
   H     54.32000000    42.65000000    51.27000000
   H     51.57000000    42.84000000    52.69000000
   H     52.98000000    41.77000000    52.98000000
   H     53.07000000    43.39000000    53.48000000
   N     51.58000000    43.33000000    49.63000000
   C     50.75000000    42.99000000    48.48000000
   C     51.64000000    43.20000000    47.26000000
   O     51.69000000    42.36000000    46.37000000
   C     49.44000000    43.77000000    48.51000000
   C     48.51000000    43.57000000    49.71000000
   C     47.27000000    44.46000000    49.66000000
   O     46.14000000    43.99000000    49.41000000
   O     47.37000000    45.70000000    49.77000000
   H     51.49000000    44.26000000    50.03000000
   H     50.39000000    41.97000000    48.54000000
   H     48.91000000    43.29000000    47.68000000
   H     49.62000000    44.81000000    48.26000000
   H     49.09000000    43.81000000    50.60000000
   H     48.27000000    42.51000000    49.76000000
   N     52.45000000    44.26000000    47.30000000
   C     53.34000000    44.56000000    46.20000000
   H     54.30200000    44.07700000    46.37000000
   H     52.90700000    44.19000000    45.27100000
   H     53.48200000    45.63800000    46.13100000
   H     52.20000000    44.96000000    47.99000000
  Ca     44.83000000    45.83000000    50.63000000
   O     45.97000000    47.76000000    52.35000000
   H     46.64000000    48.44000000    52.48000000
   H     45.89000000    47.34000000    53.21000000
   O     44.17000000    45.44000000    53.42000000
   H     44.22000000    45.71000000    54.34000000
   H     43.70000000    44.61000000    53.44000000
   O     46.31000000    44.02000000    52.49000000
   H     45.79000000    44.28000000    53.25000000
   H     47.10000000    43.63000000    52.87000000

Ca 1.70



