%chk=loop4.cluster126.chk
%nprocshared=48
%mem=10GB
%nosave
#b3lyp/svp scf=(tight,noincore) Test 
#IOP(5/87=12) Density=Current Pop=(MK,readradii) iop(6/33=2) iop(6/42=6)

loop4.cluster126 

   -3  1 
   C    106.91000000    27.26000000    64.39000000
   C    108.23000000    27.89000000    64.83000000
   O    108.49000000    28.97000000    64.30000000
   H    106.16500000    28.04200000    64.24500000
   H    107.05800000    26.72200000    63.45300000
   H    106.56400000    26.56700000    65.15700000
   N    109.02000000    27.23000000    65.68000000
   C    110.33000000    27.63000000    66.15000000
   C    110.43000000    29.00000000    66.81000000
   O    111.53000000    29.55000000    66.74000000
   C    111.34000000    27.46000000    65.02000000
   C    111.27000000    26.03000000    64.51000000
   O    111.00000000    25.85000000    63.30000000
   O    111.65000000    25.10000000    65.24000000
   H    108.64000000    26.39000000    66.08000000
   H    110.65000000    27.02000000    66.99000000
   H    112.36000000    27.64000000    65.37000000
   H    111.12000000    28.11000000    64.18000000
   N    109.37000000    29.61000000    67.34000000
   C    109.56000000    30.61000000    68.37000000
   C    109.56000000    30.02000000    69.77000000
   O    108.71000000    29.17000000    70.04000000
   C    108.40000000    31.56000000    68.10000000
   C    108.45000000    32.20000000    66.71000000
   C    108.44000000    32.60000000    69.22000000
   C    107.15000000    32.84000000    66.23000000
   H    108.53000000    29.06000000    67.42000000
   H    110.45000000    31.22000000    68.20000000
   H    107.45000000    31.02000000    68.10000000
   H    108.56000000    31.42000000    65.96000000
   H    109.26000000    32.92000000    66.64000000
   H    108.29000000    32.16000000    70.21000000
   H    109.39000000    33.12000000    69.21000000
   H    107.67000000    33.37000000    69.16000000
   H    106.26000000    32.27000000    66.51000000
   H    106.98000000    33.78000000    66.74000000
   H    107.18000000    32.98000000    65.15000000
   N    110.42000000    30.36000000    70.73000000
   C    111.61000000    31.17000000    70.57000000
   C    112.77000000    30.49000000    69.86000000
   O    113.57000000    31.02000000    69.10000000
   C    112.08000000    31.49000000    71.99000000
   C    111.09000000    32.36000000    72.75000000
   O    111.29000000    33.59000000    72.72000000
   O    110.10000000    31.84000000    73.31000000
   H    110.41000000    29.84000000    71.60000000
   H    111.36000000    32.11000000    70.08000000
   H    113.06000000    31.98000000    71.98000000
   H    112.27000000    30.60000000    72.60000000
   N    112.92000000    29.20000000    70.18000000
   C    113.92000000    28.22000000    69.80000000
   C    115.37000000    28.65000000    69.96000000
   O    115.93000000    28.45000000    71.04000000
   H    112.28000000    28.79000000    70.84000000
   H    113.78000000    27.84000000    68.79000000
   H    113.75000000    27.33000000    70.42000000
   N    115.98000000    29.20000000    68.91000000
   C    117.34000000    29.69000000    68.81000000
   C    117.50000000    30.74000000    67.72000000
   O    118.38000000    31.59000000    67.76000000
   C    118.22000000    28.46000000    68.56000000
   C    117.93000000    27.50000000    67.41000000
   O    118.60000000    26.45000000    67.41000000
   O    117.25000000    27.92000000    66.46000000
   H    115.42000000    29.37000000    68.09000000
   H    117.82000000    30.04000000    69.73000000
   H    118.23000000    27.90000000    69.50000000
   H    119.20000000    28.90000000    68.37000000
   N    116.49000000    30.89000000    66.86000000
   C    116.34000000    31.98000000    65.92000000
   C    117.10000000    31.63000000    64.65000000
   O    117.32000000    32.56000000    63.88000000
   H    115.76000000    30.19000000    66.87000000
   H    116.70000000    32.95000000    66.25000000
   H    115.29000000    32.08000000    65.62000000
   N    117.46000000    30.36000000    64.48000000
   C    118.13000000    29.79000000    63.32000000
   C    117.54000000    30.32000000    62.02000000
   O    118.10000000    31.22000000    61.40000000
   C    119.65000000    29.81000000    63.30000000
   C    120.36000000    28.83000000    64.23000000
   C    121.89000000    28.86000000    64.20000000
   N    122.59000000    28.01000000    64.95000000
   O    122.52000000    29.71000000    63.58000000
   H    117.10000000    29.60000000    65.05000000
   H    117.95000000    28.71000000    63.37000000
   H    120.08000000    30.80000000    63.39000000
   H    119.86000000    29.45000000    62.29000000
   H    120.05000000    27.81000000    64.00000000
   H    120.08000000    29.11000000    65.24000000
   H    122.20000000    27.12000000    65.23000000
   H    123.60000000    28.07000000    64.88000000
   N    116.42000000    29.73000000    61.61000000
   C    115.36000000    30.16000000    60.72000000
   C    115.32000000    29.22000000    59.52000000
   O    115.62000000    28.03000000    59.59000000
   C    114.00000000    30.27000000    61.40000000
   C    113.48000000    28.90000000    61.82000000
   C    113.90000000    31.11000000    62.67000000
   H    116.08000000    29.07000000    62.29000000
   H    115.63000000    31.14000000    60.33000000
   H    113.41000000    30.75000000    60.61000000
   H    112.44000000    28.90000000    62.17000000
   H    113.38000000    28.25000000    60.95000000
   H    114.09000000    28.50000000    62.63000000
   H    112.85000000    31.18000000    62.94000000
   H    114.39000000    30.58000000    63.49000000
   H    114.23000000    32.13000000    62.47000000
   N    114.78000000    29.78000000    58.44000000
   C    114.44000000    29.01000000    57.26000000
   C    112.95000000    28.75000000    57.12000000
   O    112.17000000    29.38000000    57.83000000
   C    115.07000000    29.67000000    56.03000000
   C    115.37000000    28.82000000    54.81000000
   N    116.05000000    29.37000000    53.80000000
   O    114.88000000    27.70000000    54.67000000
   H    114.51000000    30.75000000    58.49000000
   H    114.83000000    28.00000000    57.32000000
   H    116.01000000    30.12000000    56.35000000
   H    114.48000000    30.53000000    55.68000000
   H    116.39000000    30.31000000    53.93000000
   H    116.17000000    28.89000000    52.92000000
   N    112.61000000    27.78000000    56.27000000
   C    111.26000000    27.32000000    56.05000000
   C    111.31000000    25.94000000    55.40000000
   O    112.34000000    25.42000000    54.97000000
   C    110.53000000    28.26000000    55.09000000
   C    111.26000000    28.64000000    53.82000000
   C    111.03000000    27.98000000    52.61000000
   C    112.18000000    29.69000000    53.83000000
   C    111.81000000    28.23000000    51.47000000
   C    112.94000000    30.03000000    52.70000000
   C    112.75000000    29.27000000    51.53000000
   O    113.55000000    29.44000000    50.43000000
   H    113.35000000    27.26000000    55.81000000
   H    110.67000000    27.27000000    56.96000000
   H    110.30000000    29.17000000    55.64000000
   H    109.55000000    27.88000000    54.83000000
   H    110.44000000    27.08000000    52.61000000
   H    112.34000000    30.28000000    54.72000000
   H    111.67000000    27.72000000    50.53000000
   H    113.59000000    30.89000000    52.67000000
   H    114.32000000    30.01000000    50.52000000
   N    110.17000000    25.27000000    55.51000000
   C    110.07000000    23.84000000    55.25000000
   C    109.14000000    23.50000000    54.09000000
   O    109.59000000    22.96000000    53.08000000
   C    109.96000000    22.98000000    56.50000000
   C    111.15000000    23.08000000    57.45000000
   C    110.89000000    22.27000000    58.71000000
   O    110.58000000    22.77000000    59.82000000
   O    110.93000000    21.03000000    58.52000000
   H    109.33000000    25.73000000    55.82000000
   H    110.97000000    23.54000000    54.72000000
   H    109.68000000    21.96000000    56.22000000
   H    109.11000000    23.35000000    57.08000000
   H    111.09000000    24.11000000    57.81000000
   H    112.12000000    23.00000000    56.96000000
   N    107.83000000    23.73000000    54.14000000
   C    106.88000000    23.68000000    55.23000000
   C    105.72000000    24.66000000    55.07000000
   O    105.05000000    24.71000000    54.04000000
   C    106.39000000    22.26000000    55.50000000
   C    105.62000000    21.42000000    54.49000000
   C    105.68000000    19.95000000    54.89000000
   O    105.60000000    19.55000000    56.07000000
   O    105.77000000    19.21000000    53.89000000
   H    107.42000000    23.62000000    53.23000000
   H    107.37000000    24.05000000    56.13000000
   H    105.64000000    22.33000000    56.29000000
   H    107.17000000    21.62000000    55.92000000
   H    106.12000000    21.55000000    53.53000000
   H    104.57000000    21.71000000    54.37000000
   N    105.43000000    25.38000000    56.15000000
   C    104.26000000    26.18000000    56.47000000
   H    103.42700000    25.52200000    56.71900000
   H    104.48100000    26.82300000    57.32200000
   H    103.99300000    26.79400000    55.61000000
   H    106.09000000    25.29000000    56.90000000
  Ca    110.02500000    23.91000000    61.96000000
   O    112.27500000    22.65000000    62.14000000
   H    113.19500000    22.53000000    62.37000000
   H    112.13500000    22.07000000    61.40000000
   O    109.10500000    25.72000000    60.31000000
   H    108.22500000    26.09000000    60.24000000
   H    109.63500000    26.25000000    59.72000000
   O    111.92500000    25.38000000    60.78000000
   H    111.76500000    25.89000000    61.57000000
   H    111.91500000    26.02000000    60.07000000
   O    110.48500000    22.89000000    64.38000000
   H    110.98500000    23.67000000    64.64000000
   H    110.45500000    22.35000000    65.16000000

Ca 1.70



