%chk=loop2.cluster181.chk
%nprocshared=48
%mem=10GB
%nosave
#b3lyp/svp scf=(tight,noincore) Test 
#IOP(5/87=12) Density=Current Pop=(MK,readradii) iop(6/33=2) iop(6/42=6)

loop2.cluster181 

   -2  1 
   C     57.89000000    48.25000000    18.77000000
   C     58.90000000    48.40000000    17.64000000
   O     59.64000000    49.38000000    17.70000000
   H     56.94800000    47.87700000    18.36800000
   H     58.27300000    47.54700000    19.50900000
   H     57.72400000    49.21900000    19.24100000
   N     58.89000000    47.53000000    16.63000000
   C     60.03000000    47.47000000    15.74000000
   C     60.04000000    48.48000000    14.60000000
   O     59.21000000    48.39000000    13.70000000
   C     60.10000000    46.02000000    15.26000000
   C     61.41000000    45.75000000    14.53000000
   O     62.35000000    46.57000000    14.51000000
   O     61.64000000    44.61000000    14.09000000
   H     58.27000000    46.73000000    16.62000000
   H     60.90000000    47.66000000    16.37000000
   H     59.26000000    45.75000000    14.62000000
   H     60.07000000    45.38000000    16.14000000
   N     60.97000000    49.43000000    14.55000000
   C     61.06000000    50.26000000    13.37000000
   C     61.93000000    49.79000000    12.21000000
   O     61.86000000    50.40000000    11.15000000
   C     61.55000000    51.66000000    13.75000000
   H     61.57000000    49.60000000    15.35000000
   H     60.06000000    50.40000000    12.94000000
   H     62.38000000    51.58000000    14.46000000
   H     61.79000000    52.24000000    12.86000000
   H     60.73000000    52.17000000    14.26000000
   N     62.92000000    48.94000000    12.50000000
   C     63.92000000    48.53000000    11.53000000
   C     63.80000000    47.13000000    10.95000000
   O     64.47000000    46.79000000     9.98000000
   C     65.32000000    48.76000000    12.09000000
   C     65.67000000    48.00000000    13.35000000
   O     65.04000000    46.98000000    13.70000000
   O     66.56000000    48.54000000    14.05000000
   H     62.96000000    48.46000000    13.38000000
   H     63.75000000    49.14000000    10.63000000
   H     65.37000000    49.84000000    12.28000000
   H     66.04000000    48.39000000    11.36000000
   N     62.87000000    46.31000000    11.46000000
   C     62.28000000    45.09000000    10.95000000
   C     63.00000000    43.78000000    11.25000000
   O     63.03000000    42.91000000    10.38000000
   H     62.44000000    46.58000000    12.34000000
   H     62.25000000    45.11000000     9.86000000
   H     61.25000000    45.00000000    11.31000000
   N     63.59000000    43.64000000    12.43000000
   C     64.41000000    42.52000000    12.86000000
   C     63.89000000    41.73000000    14.05000000
   O     64.33000000    40.61000000    14.30000000
   C     65.88000000    42.91000000    13.01000000
   C     66.21000000    43.82000000    14.18000000
   N     67.27000000    44.63000000    14.21000000
   O     65.51000000    43.91000000    15.19000000
   H     63.41000000    44.33000000    13.15000000
   H     64.53000000    41.80000000    12.05000000
   H     66.22000000    43.36000000    12.08000000
   H     66.52000000    42.05000000    13.18000000
   H     67.99000000    44.65000000    13.50000000
   H     67.43000000    45.23000000    15.01000000
   N     62.85000000    42.20000000    14.75000000
   C     62.11000000    41.45000000    15.75000000
   C     62.96000000    41.15000000    16.98000000
   O     62.70000000    40.17000000    17.68000000
   H     62.50000000    43.10000000    14.46000000
   H     61.74000000    40.54000000    15.28000000
   H     61.28000000    42.05000000    16.10000000
   N     63.94000000    42.00000000    17.29000000
   C     64.51000000    42.19000000    18.61000000
   C     64.61000000    43.68000000    18.91000000
   O     64.71000000    44.50000000    18.00000000
   C     65.86000000    41.49000000    18.81000000
   C     65.71000000    39.97000000    18.73000000
   O     66.76000000    41.92000000    17.82000000
   H     64.22000000    42.72000000    16.64000000
   H     63.87000000    41.76000000    19.38000000
   H     66.32000000    41.76000000    19.76000000
   H     67.48000000    41.29000000    17.89000000
   H     66.63000000    39.47000000    19.03000000
   H     64.98000000    39.75000000    19.50000000
   H     65.33000000    39.73000000    17.73000000
   N     64.64000000    44.05000000    20.19000000
   C     64.75000000    45.44000000    20.60000000
   C     66.22000000    45.83000000    20.57000000
   O     67.04000000    45.07000000    21.08000000
   C     64.09000000    45.69000000    21.95000000
   C     62.61000000    45.34000000    21.90000000
   C     64.12000000    47.17000000    22.35000000
   C     62.03000000    45.26000000    23.31000000
   H     64.62000000    43.27000000    20.82000000
   H     64.17000000    46.06000000    19.91000000
   H     64.58000000    45.14000000    22.75000000
   H     62.48000000    44.34000000    21.47000000
   H     62.00000000    46.02000000    21.31000000
   H     65.06000000    47.43000000    22.84000000
   H     63.90000000    47.89000000    21.56000000
   H     63.39000000    47.40000000    23.12000000
   H     62.72000000    44.67000000    23.92000000
   H     61.74000000    46.22000000    23.75000000
   H     61.04000000    44.83000000    23.21000000
   N     66.46000000    47.02000000    20.02000000
   C     67.75000000    47.66000000    19.90000000
   C     67.84000000    48.97000000    20.67000000
   O     66.79000000    49.54000000    20.97000000
   C     68.09000000    47.81000000    18.42000000
   C     67.00000000    47.38000000    17.45000000
   O     65.94000000    48.05000000    17.39000000
   O     67.03000000    46.34000000    16.75000000
   H     65.60000000    47.52000000    19.84000000
   H     68.40000000    46.94000000    20.39000000
   H     68.88000000    47.08000000    18.21000000
   H     68.51000000    48.79000000    18.21000000
   N     68.97000000    49.49000000    21.15000000
   C     68.88000000    50.51000000    22.18000000
   C     68.11000000    51.74000000    21.73000000
   O     67.35000000    52.20000000    22.58000000
   C     70.26000000    50.74000000    22.79000000
   C     70.22000000    51.75000000    23.91000000
   C     71.02000000    52.90000000    23.83000000
   C     69.42000000    51.52000000    25.04000000
   C     71.00000000    53.82000000    24.88000000
   C     69.33000000    52.50000000    26.04000000
   C     70.16000000    53.62000000    25.99000000
   H     69.75000000    48.84000000    21.14000000
   H     68.31000000    50.02000000    22.97000000
   H     70.98000000    51.05000000    22.04000000
   H     70.57000000    49.78000000    23.21000000
   H     71.59000000    53.11000000    22.94000000
   H     68.89000000    50.60000000    25.23000000
   H     71.52000000    54.76000000    24.82000000
   H     68.63000000    52.35000000    26.85000000
   H     70.09000000    54.31000000    26.82000000
   N     68.24000000    52.28000000    20.52000000
   C     67.43000000    53.34000000    19.96000000
   C     65.94000000    53.05000000    19.82000000
   O     65.02000000    53.85000000    19.79000000
   C     68.06000000    53.66000000    18.60000000
   C     69.52000000    53.25000000    18.77000000
   C     69.41000000    52.04000000    19.69000000
   H     67.54000000    54.26000000    20.53000000
   H     67.55000000    53.02000000    17.89000000
   H     67.91000000    54.66000000    18.20000000
   H     69.95000000    52.86000000    17.84000000
   H     70.04000000    54.09000000    19.23000000
   H     69.41000000    51.09000000    19.15000000
   H     70.31000000    51.96000000    20.29000000
   N     65.59000000    51.76000000    19.76000000
   C     64.22000000    51.29000000    19.87000000
   C     63.74000000    51.28000000    21.32000000
   O     62.66000000    51.82000000    21.58000000
   C     64.14000000    49.94000000    19.16000000
   C     62.76000000    49.55000000    18.65000000
   C     62.92000000    48.34000000    17.74000000
   O     63.15000000    48.54000000    16.53000000
   O     62.87000000    47.20000000    18.24000000
   H     66.35000000    51.11000000    19.87000000
   H     63.47000000    51.95000000    19.43000000
   H     64.53000000    49.19000000    19.84000000
   H     64.81000000    49.99000000    18.30000000
   H     62.45000000    50.36000000    17.99000000
   H     62.04000000    49.37000000    19.45000000
   N     64.55000000    50.92000000    22.31000000
   C     64.29000000    51.17000000    23.72000000
   H     63.24500000    50.95300000    23.94000000
   H     64.92900000    50.52900000    24.32700000
   H     64.50000000    52.21500000    23.94900000
   H     65.35000000    50.41000000    21.97000000
  Ca     64.39000000    46.32000000    16.06000000

Ca 1.70



