%chk=loop1.cluster4.chk
%nprocshared=48
%mem=10GB
%nosave
#b3lyp/svp scf=(tight,noincore) Test 
#IOP(5/87=12) Density=Current Pop=(MK,readradii) iop(6/33=2) iop(6/42=6)

loop1.cluster4 

   0  1 
   C     58.61000000   -21.54000000    31.85000000
   C     58.69000000   -23.04000000    31.59000000
   O     58.10000000   -23.60000000    30.67000000
   H     57.62800000   -21.29400000    32.25300000
   H     59.37900000   -21.25300000    32.56700000
   H     58.76400000   -21.00000000    30.91600000
   N     59.37000000   -23.70000000    32.52000000
   C     59.74000000   -25.10000000    32.43000000
   C     58.85000000   -25.99000000    33.29000000
   O     59.24000000   -27.08000000    33.69000000
   C     61.19000000   -25.26000000    32.88000000
   C     61.62000000   -24.56000000    34.16000000
   O     62.21000000   -25.22000000    35.03000000
   O     61.40000000   -23.34000000    34.36000000
   H     59.71000000   -23.05000000    33.21000000
   H     59.63000000   -25.51000000    31.42000000
   H     61.78000000   -24.77000000    32.11000000
   H     61.45000000   -26.32000000    32.87000000
   N     57.80000000   -25.40000000    33.87000000
   C     57.09000000   -25.90000000    35.03000000
   C     55.62000000   -26.13000000    34.75000000
   O     54.78000000   -25.39000000    35.25000000
   C     57.41000000   -25.09000000    36.28000000
   C     58.91000000   -25.08000000    36.60000000
   C     59.18000000   -24.42000000    37.95000000
   C     60.69000000   -24.36000000    38.17000000
   N     61.42000000   -23.54000000    37.19000000
   H     57.52000000   -24.46000000    33.61000000
   H     57.51000000   -26.90000000    35.17000000
   H     57.00000000   -25.51000000    37.20000000
   H     57.02000000   -24.07000000    36.29000000
   H     59.51000000   -24.56000000    35.85000000
   H     59.20000000   -26.11000000    36.76000000
   H     58.68000000   -25.02000000    38.71000000
   H     58.80000000   -23.39000000    37.90000000
   H     61.04000000   -25.39000000    38.26000000
   H     60.87000000   -24.06000000    39.20000000
   H     62.36000000   -23.47000000    37.56000000
   H     61.49000000   -24.10000000    36.35000000
   H     60.94000000   -22.69000000    36.95000000
   N     55.16000000   -27.14000000    33.99000000
   C     55.71000000   -28.28000000    33.29000000
   C     56.56000000   -29.21000000    34.14000000
   O     56.70000000   -29.04000000    35.35000000
   C     56.38000000   -27.77000000    32.02000000
   C     55.96000000   -28.40000000    30.70000000
   O     56.79000000   -28.65000000    29.80000000
   O     54.76000000   -28.72000000    30.57000000
   H     54.21000000   -26.99000000    33.67000000
   H     54.87000000   -28.92000000    33.04000000
   H     57.47000000   -27.85000000    32.11000000
   H     56.28000000   -26.69000000    31.89000000
   N     57.12000000   -30.34000000    33.69000000
   C     57.26000000   -30.84000000    32.34000000
   C     57.89000000   -32.21000000    32.17000000
   O     57.56000000   -33.12000000    32.93000000
   H     57.41000000   -30.99000000    34.40000000
   H     57.75000000   -30.01000000    31.83000000
   H     56.24000000   -30.91000000    31.94000000
   N     58.65000000   -32.50000000    31.11000000
   C     58.87000000   -31.72000000    29.91000000
   C     59.75000000   -30.49000000    29.96000000
   O     59.77000000   -29.65000000    29.06000000
   C     59.55000000   -32.62000000    28.88000000
   C     60.87000000   -33.05000000    29.50000000
   O     61.85000000   -32.29000000    29.34000000
   O     60.89000000   -34.12000000    30.15000000
   H     59.06000000   -33.43000000    31.19000000
   H     57.95000000   -31.37000000    29.44000000
   H     59.80000000   -32.04000000    27.99000000
   H     58.86000000   -33.43000000    28.65000000
   N     60.34000000   -30.30000000    31.14000000
   C     61.05000000   -29.13000000    31.63000000
   C     62.37000000   -28.80000000    30.94000000
   O     63.08000000   -27.87000000    31.33000000
   H     60.44000000   -31.08000000    31.77000000
   H     61.21000000   -29.21000000    32.70000000
   H     60.47000000   -28.21000000    31.52000000
   N     62.71000000   -29.52000000    29.87000000
   C     63.66000000   -29.07000000    28.87000000
   C     63.01000000   -27.85000000    28.22000000
   O     61.83000000   -27.82000000    27.88000000
   C     64.04000000   -30.05000000    27.77000000
   C     64.87000000   -29.47000000    26.62000000
   O     62.83000000   -30.60000000    27.28000000
   H     62.27000000   -30.40000000    29.64000000
   H     64.61000000   -28.87000000    29.37000000
   H     64.48000000   -30.87000000    28.33000000
   H     62.32000000   -30.95000000    28.02000000
   H     65.73000000   -28.92000000    26.99000000
   H     65.29000000   -30.19000000    25.93000000
   H     64.24000000   -28.78000000    26.06000000
   N     63.75000000   -26.75000000    28.11000000
   C     63.35000000   -25.43000000    27.68000000
   C     64.22000000   -24.86000000    26.57000000
   O     65.21000000   -24.15000000    26.76000000
   C     63.24000000   -24.49000000    28.88000000
   C     62.72000000   -23.10000000    28.51000000
   C     64.36000000   -24.27000000    29.90000000
   C     61.50000000   -23.13000000    27.60000000
   H     64.70000000   -26.94000000    28.40000000
   H     62.38000000   -25.51000000    27.19000000
   H     62.38000000   -24.87000000    29.42000000
   H     63.54000000   -22.50000000    28.11000000
   H     62.38000000   -22.81000000    29.50000000
   H     64.08000000   -23.63000000    30.73000000
   H     64.63000000   -25.24000000    30.33000000
   H     65.18000000   -23.74000000    29.42000000
   H     61.70000000   -23.47000000    26.58000000
   H     60.67000000   -23.60000000    28.13000000
   H     61.11000000   -22.13000000    27.40000000
   N     63.82000000   -25.25000000    25.36000000
   C     64.32000000   -24.96000000    24.03000000
   C     63.42000000   -24.20000000    23.07000000
   O     63.90000000   -23.61000000    22.10000000
   C     64.67000000   -26.31000000    23.39000000
   C     63.55000000   -27.29000000    23.09000000
   O     65.52000000   -27.05000000    24.23000000
   H     62.97000000   -25.78000000    25.46000000
   H     65.28000000   -24.45000000    24.15000000
   H     65.23000000   -26.12000000    22.47000000
   H     66.32000000   -26.60000000    24.51000000
   H     62.80000000   -27.37000000    23.88000000
   H     63.01000000   -27.11000000    22.16000000
   H     63.90000000   -28.32000000    23.01000000
   N     62.13000000   -24.10000000    23.37000000
   C     61.09000000   -23.56000000    22.52000000
   C     60.79000000   -24.33000000    21.23000000
   O     61.64000000   -25.13000000    20.85000000
   C     61.13000000   -22.04000000    22.44000000
   C     60.79000000   -21.46000000    23.81000000
   O     60.28000000   -21.40000000    21.52000000
   H     61.83000000   -24.56000000    24.22000000
   H     60.21000000   -23.71000000    23.14000000
   H     62.16000000   -21.75000000    22.24000000
   H     60.79000000   -20.61000000    21.33000000
   H     61.36000000   -20.54000000    23.94000000
   H     59.79000000   -21.03000000    23.84000000
   H     61.07000000   -22.10000000    24.65000000
   N     59.64000000   -24.17000000    20.58000000
   C     59.29000000   -24.72000000    19.29000000
   C     57.99000000   -25.49000000    19.14000000
   O     57.77000000   -26.15000000    18.13000000
   C     59.47000000   -23.67000000    18.20000000
   C     60.90000000   -23.18000000    17.99000000
   C     61.18000000   -22.42000000    16.69000000
   C     62.68000000   -22.12000000    16.72000000
   N     63.04000000   -21.15000000    15.68000000
   H     58.97000000   -23.55000000    21.02000000
   H     59.96000000   -25.53000000    18.99000000
   H     58.86000000   -22.86000000    18.61000000
   H     59.05000000   -23.98000000    17.24000000
   H     61.43000000   -24.13000000    17.89000000
   H     61.25000000   -22.74000000    18.92000000
   H     60.57000000   -21.52000000    16.75000000
   H     60.95000000   -23.05000000    15.83000000
   H     63.22000000   -23.05000000    16.58000000
   H     62.92000000   -21.77000000    17.73000000
   H     64.01000000   -20.90000000    15.67000000
   H     62.79000000   -21.62000000    14.82000000
   H     62.53000000   -20.30000000    15.88000000
   N     57.04000000   -25.64000000    20.06000000
   C     56.74000000   -25.10000000    21.37000000
   C     56.70000000   -23.58000000    21.27000000
   O     57.38000000   -22.90000000    22.03000000
   C     57.57000000   -25.76000000    22.48000000
   C     56.89000000   -25.60000000    23.83000000
   C     57.50000000   -26.49000000    24.91000000
   O     58.41000000   -26.01000000    25.61000000
   O     56.91000000   -27.57000000    25.14000000
   H     56.43000000   -26.38000000    19.73000000
   H     55.70000000   -25.38000000    21.55000000
   H     58.53000000   -25.26000000    22.51000000
   H     57.68000000   -26.83000000    22.27000000
   H     55.84000000   -25.88000000    23.70000000
   H     56.81000000   -24.57000000    24.16000000
   N     56.13000000   -23.08000000    20.17000000
   C     56.08000000   -21.68000000    19.80000000
   H     55.42400000   -21.14600000    20.48800000
   H     57.08200000   -21.25400000    19.85000000
   H     55.69500000   -21.58500000    18.78500000
   H     55.68000000   -23.69000000    19.50000000
  Ca     57.76000000   -27.94800000    27.60000000
   O     54.95000000   -28.06800000    27.74000000
   H     54.84000000   -28.27800000    28.67000000
   H     54.35000000   -28.66800000    27.29000000
   O     59.74000000   -29.02800000    26.23000000
   H     59.52000000   -29.77800000    25.67000000
   H     60.45000000   -29.34800000    26.78000000
   O     59.68000000   -26.29800000    28.80000000
   H     59.62000000   -25.37800000    29.05000000
   H     60.59000000   -26.40800000    28.51000000
   O     57.36000000   -30.51800000    26.89000000
   H     57.73000000   -30.93800000    26.12000000
   H     56.91000000   -31.21800000    27.36000000
   O     56.83000000   -25.52800000    28.50000000
   H     57.01000000   -24.62800000    28.22000000
   H     56.55000000   -25.43800000    29.42000000

Ca 1.70



