%chk=loop2.cluster60.chk
%nprocshared=48
%mem=10GB
%nosave
#b3lyp/svp scf=(tight,noincore) Test 
#IOP(5/87=12) Density=Current Pop=(MK,readradii) iop(6/33=2) iop(6/42=6)

loop2.cluster60 

   -2  1 
   C     63.70000000   -21.31000000    28.89000000
   C     63.27000000   -22.51000000    29.71000000
   O     63.39000000   -22.42000000    30.93000000
   H     64.70500000   -21.47700000    28.50200000
   H     63.00900000   -21.17100000    28.05900000
   H     63.69700000   -20.42000000    29.51900000
   N     62.78000000   -23.57000000    29.06000000
   C     62.45000000   -24.77000000    29.80000000
   C     63.58000000   -25.51000000    30.50000000
   O     63.45000000   -25.97000000    31.63000000
   C     61.75000000   -25.72000000    28.84000000
   C     61.30000000   -27.05000000    29.43000000
   O     60.35000000   -27.11000000    30.23000000
   O     62.12000000   -27.99000000    29.31000000
   H     62.69000000   -23.56000000    28.05000000
   H     61.72000000   -24.61000000    30.60000000
   H     62.40000000   -25.92000000    27.99000000
   H     60.89000000   -25.21000000    28.39000000
   N     64.78000000   -25.62000000    29.91000000
   C     66.05000000   -26.06000000    30.45000000
   C     66.49000000   -25.34000000    31.72000000
   O     67.36000000   -25.83000000    32.44000000
   C     65.92000000   -27.57000000    30.67000000
   H     64.83000000   -25.33000000    28.95000000
   H     66.79000000   -25.93000000    29.67000000
   H     66.90000000   -27.98000000    30.43000000
   H     65.64000000   -27.83000000    31.69000000
   H     65.19000000   -27.98000000    29.98000000
   N     65.89000000   -24.19000000    32.01000000
   C     66.09000000   -23.32000000    33.16000000
   C     65.87000000   -24.09000000    34.45000000
   O     66.51000000   -23.91000000    35.48000000
   C     67.39000000   -22.50000000    33.10000000
   C     67.67000000   -21.91000000    31.73000000
   O     68.83000000   -21.94000000    31.28000000
   O     66.70000000   -21.36000000    31.16000000
   H     65.13000000   -23.91000000    31.42000000
   H     65.32000000   -22.55000000    33.11000000
   H     68.10000000   -23.32000000    33.23000000
   H     67.47000000   -21.79000000    33.92000000
   N     64.83000000   -24.93000000    34.50000000
   C     64.53000000   -25.77000000    35.64000000
   C     63.84000000   -25.05000000    36.79000000
   O     63.56000000   -23.86000000    36.88000000
   H     64.13000000   -24.83000000    33.78000000
   H     65.41000000   -26.21000000    36.12000000
   H     63.89000000   -26.60000000    35.35000000
   N     63.62000000   -25.78000000    37.89000000
   C     63.18000000   -25.33000000    39.20000000
   C     62.03000000   -24.34000000    39.18000000
   O     62.04000000   -23.41000000    39.98000000
   C     64.29000000   -25.08000000    40.21000000
   C     63.73000000   -25.00000000    41.62000000
   N     64.08000000   -23.98000000    42.41000000
   O     62.96000000   -25.85000000    42.06000000
   H     63.78000000   -26.77000000    37.87000000
   H     62.81000000   -26.30000000    39.54000000
   H     64.67000000   -24.12000000    39.86000000
   H     65.13000000   -25.78000000    40.23000000
   H     64.57000000   -23.28000000    41.89000000
   H     63.47000000   -23.80000000    43.20000000
   N     61.05000000   -24.59000000    38.30000000
   C     59.92000000   -23.69000000    38.16000000
   C     60.19000000   -22.53000000    37.22000000
   O     59.25000000   -21.76000000    37.04000000
   H     61.23000000   -25.32000000    37.63000000
   H     59.64000000   -23.31000000    39.15000000
   H     59.09000000   -24.30000000    37.78000000
   N     61.29000000   -22.43000000    36.46000000
   C     61.29000000   -21.74000000    35.19000000
   C     61.60000000   -20.27000000    35.41000000
   O     62.25000000   -19.85000000    36.36000000
   C     62.13000000   -22.50000000    34.16000000
   C     61.76000000   -23.97000000    33.98000000
   O     61.80000000   -21.88000000    32.93000000
   H     62.11000000   -22.95000000    36.73000000
   H     60.23000000   -21.77000000    34.97000000
   H     63.20000000   -22.38000000    34.32000000
   H     62.57000000   -22.01000000    32.37000000
   H     62.05000000   -24.50000000    34.89000000
   H     60.68000000   -24.10000000    33.95000000
   H     62.26000000   -24.32000000    33.08000000
   N     61.02000000   -19.38000000    34.60000000
   C     61.25000000   -17.95000000    34.57000000
   C     62.61000000   -17.65000000    33.97000000
   O     63.03000000   -18.30000000    33.01000000
   C     60.10000000   -17.29000000    33.82000000
   C     60.06000000   -15.81000000    34.20000000
   C     60.08000000   -17.57000000    32.32000000
   C     59.01000000   -15.06000000    33.40000000
   H     60.52000000   -19.82000000    33.83000000
   H     61.32000000   -17.61000000    35.60000000
   H     59.19000000   -17.73000000    34.24000000
   H     61.05000000   -15.41000000    33.96000000
   H     59.80000000   -15.67000000    35.25000000
   H     59.06000000   -17.54000000    31.95000000
   H     60.69000000   -16.76000000    31.91000000
   H     60.46000000   -18.57000000    32.13000000
   H     58.05000000   -15.49000000    33.68000000
   H     59.09000000   -14.03000000    33.74000000
   H     59.30000000   -15.19000000    32.35000000
   N     63.26000000   -16.60000000    34.49000000
   C     64.61000000   -16.15000000    34.21000000
   C     65.26000000   -15.54000000    35.44000000
   O     65.82000000   -14.45000000    35.38000000
   C     64.65000000   -15.20000000    33.01000000
   C     66.07000000   -14.90000000    32.55000000
   O     66.96000000   -15.70000000    32.90000000
   O     66.31000000   -14.13000000    31.59000000
   H     62.79000000   -16.23000000    35.30000000
   H     65.11000000   -17.07000000    33.90000000
   H     64.12000000   -14.29000000    33.30000000
   H     64.11000000   -15.61000000    32.15000000
   N     65.40000000   -16.36000000    36.49000000
   C     66.48000000   -16.15000000    37.43000000
   C     66.40000000   -14.89000000    38.28000000
   O     67.50000000   -14.47000000    38.62000000
   C     66.67000000   -17.45000000    38.21000000
   C     65.61000000   -17.75000000    39.25000000
   C     64.55000000   -18.59000000    38.90000000
   C     65.70000000   -17.23000000    40.55000000
   C     63.62000000   -18.92000000    39.89000000
   C     64.76000000   -17.61000000    41.51000000
   C     63.70000000   -18.48000000    41.22000000
   H     64.86000000   -17.21000000    36.48000000
   H     67.42000000   -16.13000000    36.89000000
   H     67.63000000   -17.27000000    38.70000000
   H     66.80000000   -18.23000000    37.46000000
   H     64.43000000   -18.95000000    37.89000000
   H     66.51000000   -16.56000000    40.77000000
   H     62.86000000   -19.64000000    39.64000000
   H     65.05000000   -17.30000000    42.51000000
   H     63.01000000   -18.88000000    41.94000000
   N     65.29000000   -14.34000000    38.78000000
   C     63.93000000   -14.81000000    38.62000000
   C     63.24000000   -14.05000000    37.49000000
   O     62.33000000   -14.67000000    36.94000000
   C     63.28000000   -14.71000000    40.00000000
   C     64.04000000   -13.55000000    40.64000000
   C     65.38000000   -13.44000000    39.91000000
   H     63.94000000   -15.84000000    38.28000000
   H     62.21000000   -14.50000000    39.99000000
   H     63.56000000   -15.61000000    40.55000000
   H     63.49000000   -12.62000000    40.49000000
   H     64.17000000   -13.80000000    41.69000000
   H     65.62000000   -12.42000000    39.61000000
   H     66.17000000   -13.80000000    40.56000000
   N     63.52000000   -12.76000000    37.26000000
   C     62.82000000   -11.90000000    36.32000000
   C     63.37000000   -11.75000000    34.91000000
   O     64.56000000   -11.56000000    34.69000000
   C     62.82000000   -10.46000000    36.85000000
   C     61.88000000   -10.42000000    38.05000000
   C     61.40000000    -9.01000000    38.36000000
   O     60.26000000    -8.90000000    38.85000000
   O     62.25000000    -8.09000000    38.37000000
   H     64.40000000   -12.37000000    37.56000000
   H     61.81000000   -12.30000000    36.27000000
   H     62.58000000    -9.74000000    36.07000000
   H     63.88000000   -10.28000000    37.04000000
   H     62.37000000   -10.80000000    38.94000000
   H     61.01000000   -11.02000000    37.81000000
   N     62.46000000   -11.73000000    33.93000000
   C     62.58000000   -11.89000000    32.50000000
   H     63.63400000   -11.90500000    32.22400000
   H     62.11200000   -12.82700000    32.19800000
   H     62.08600000   -11.05800000    31.99800000
   H     61.47000000   -11.76000000    34.16000000
  Ca     68.24000000   -17.44000000    31.37000000
   O     65.67000000   -18.73000000    31.92000000
   H     64.72000000   -18.67000000    32.03000000
   H     65.80000000   -19.55000000    31.43000000
   O     67.30000000   -19.23000000    29.63000000
   H     67.19000000   -20.09000000    30.04000000
   H     67.11000000   -19.38000000    28.70000000
   O     68.81000000   -14.97000000    30.84000000
   H     68.22000000   -14.22000000    30.76000000
   H     69.61000000   -14.61000000    31.22000000
   O     70.49000000   -17.00000000    32.78000000
   H     70.79000000   -17.70000000    33.36000000
   H     71.28000000   -16.47000000    32.62000000
   O     66.54000000   -16.17000000    29.61000000
   H     66.34000000   -15.50000000    30.26000000
   H     65.75000000   -16.25000000    29.08000000
   O     69.95000000   -17.46000000    29.36000000
   H     69.76000000   -17.08000000    28.51000000
   H     70.53000000   -18.20000000    29.17000000
   O     70.05000000   -19.58000000    31.53000000
   H     70.03000000   -20.42000000    31.08000000
   H     70.66000000   -19.71000000    32.26000000
   O     68.17000000   -18.57000000    33.88000000
   H     69.00000000   -18.62000000    34.36000000
   H     67.50000000   -18.75000000    34.54000000

Ca 1.70



