%chk=loop2.cluster128.chk
%nprocshared=48
%mem=10GB
%nosave
#b3lyp/svp scf=(tight,noincore) Test 
#IOP(5/87=12) Density=Current Pop=(MK,readradii) iop(6/33=2) iop(6/42=6)

loop2.cluster128 

   -2  1 
   C     81.88000000    83.58000000    38.54000000
   C     83.04000000    83.60000000    39.53000000
   O     83.42000000    84.63000000    40.08000000
   H     81.06200000    84.18800000    38.92700000
   H     82.21100000    83.98400000    37.58300000
   H     81.53600000    82.55500000    38.40300000
   N     83.79000000    82.51000000    39.72000000
   C     84.98000000    82.39000000    40.53000000
   C     84.61000000    81.97000000    41.95000000
   O     85.34000000    81.30000000    42.67000000
   C     85.98000000    81.47000000    39.84000000
   C     87.35000000    81.35000000    40.50000000
   O     88.12000000    80.38000000    40.41000000
   O     87.57000000    82.25000000    41.34000000
   H     83.69000000    81.76000000    39.05000000
   H     85.42000000    83.38000000    40.62000000
   H     86.22000000    81.76000000    38.81000000
   H     85.61000000    80.45000000    39.82000000
   N     83.49000000    82.43000000    42.51000000
   C     83.24000000    82.51000000    43.93000000
   C     81.76000000    82.69000000    44.25000000
   O     81.02000000    82.97000000    43.31000000
   C     84.10000000    83.64000000    44.49000000
   H     82.75000000    82.88000000    42.00000000
   H     83.59000000    81.57000000    44.36000000
   H     85.14000000    83.39000000    44.31000000
   H     83.80000000    84.57000000    44.02000000
   H     84.02000000    83.87000000    45.56000000
   N     81.26000000    82.39000000    45.46000000
   C     81.89000000    81.83000000    46.64000000
   C     81.81000000    80.31000000    46.70000000
   O     80.93000000    79.71000000    46.08000000
   C     81.34000000    82.51000000    47.89000000
   C     81.28000000    84.01000000    47.65000000
   O     82.30000000    84.69000000    47.92000000
   O     80.23000000    84.52000000    47.22000000
   H     80.27000000    82.52000000    45.57000000
   H     82.96000000    82.06000000    46.65000000
   H     81.97000000    82.30000000    48.76000000
   H     80.35000000    82.19000000    48.20000000
   N     82.67000000    79.70000000    47.52000000
   C     82.90000000    78.27000000    47.49000000
   C     83.63000000    77.88000000    46.22000000
   O     84.55000000    78.55000000    45.75000000
   H     83.35000000    80.30000000    47.95000000
   H     81.97000000    77.70000000    47.63000000
   H     83.61000000    78.09000000    48.30000000
   N     83.31000000    76.78000000    45.54000000
   C     82.56000000    75.62000000    45.99000000
   C     81.06000000    75.68000000    45.75000000
   O     80.38000000    74.65000000    45.79000000
   C     83.29000000    74.38000000    45.47000000
   C     83.24000000    73.14000000    46.35000000
   N     82.14000000    72.38000000    46.42000000
   O     84.24000000    72.79000000    46.97000000
   H     83.80000000    76.59000000    44.68000000
   H     82.64000000    75.56000000    47.07000000
   H     84.36000000    74.59000000    45.51000000
   H     83.04000000    74.15000000    44.44000000
   H     81.29000000    72.61000000    45.93000000
   H     82.12000000    71.63000000    47.09000000
   N     80.44000000    76.84000000    45.50000000
   C     79.03000000    77.12000000    45.33000000
   C     78.21000000    77.49000000    46.56000000
   O     77.04000000    77.12000000    46.59000000
   H     81.03000000    77.66000000    45.48000000
   H     78.52000000    76.25000000    44.92000000
   H     78.91000000    77.90000000    44.58000000
   N     78.81000000    78.07000000    47.60000000
   C     78.12000000    78.66000000    48.72000000
   C     77.67000000    80.06000000    48.31000000
   O     78.28000000    81.02000000    48.77000000
   C     79.08000000    78.77000000    49.90000000
   C     78.51000000    78.92000000    51.30000000
   O     79.73000000    77.52000000    50.02000000
   H     79.79000000    78.31000000    47.49000000
   H     77.29000000    78.02000000    49.02000000
   H     79.91000000    79.45000000    49.71000000
   H     80.56000000    77.81000000    50.40000000
   H     79.35000000    78.91000000    52.01000000
   H     78.12000000    79.90000000    51.58000000
   H     77.80000000    78.16000000    51.62000000
   N     76.66000000    80.17000000    47.44000000
   C     76.17000000    81.37000000    46.80000000
   C     74.82000000    81.69000000    47.43000000
   O     74.02000000    80.84000000    47.79000000
   C     76.24000000    81.08000000    45.30000000
   C     77.72000000    81.08000000    44.90000000
   C     75.47000000    79.85000000    44.86000000
   C     77.99000000    80.56000000    43.50000000
   H     76.08000000    79.35000000    47.35000000
   H     76.80000000    82.24000000    46.97000000
   H     75.78000000    81.95000000    44.83000000
   H     78.21000000    80.35000000    45.55000000
   H     78.05000000    82.11000000    45.01000000
   H     75.02000000    79.99000000    43.88000000
   H     76.03000000    78.93000000    45.03000000
   H     74.64000000    79.67000000    45.55000000
   H     77.29000000    81.01000000    42.80000000
   H     79.01000000    80.73000000    43.15000000
   H     77.74000000    79.51000000    43.44000000
   N     74.49000000    82.98000000    47.59000000
   C     73.28000000    83.44000000    48.23000000
   C     72.08000000    83.58000000    47.31000000
   O     72.22000000    83.54000000    46.09000000
   C     73.56000000    84.77000000    48.93000000
   C     74.19000000    85.79000000    48.01000000
   O     75.42000000    85.66000000    47.81000000
   O     73.53000000    86.74000000    47.53000000
   H     75.21000000    83.65000000    47.35000000
   H     73.06000000    82.64000000    48.94000000
   H     74.26000000    84.68000000    49.76000000
   H     72.63000000    85.20000000    49.31000000
   N     70.86000000    83.58000000    47.86000000
   C     69.56000000    83.63000000    47.21000000
   C     69.43000000    84.22000000    45.82000000
   O     69.31000000    83.50000000    44.83000000
   C     68.93000000    82.25000000    47.31000000
   C     67.43000000    82.19000000    47.48000000
   C     66.71000000    82.18000000    46.28000000
   C     66.81000000    82.13000000    48.74000000
   C     65.32000000    82.09000000    46.38000000
   C     65.42000000    82.15000000    48.83000000
   C     64.69000000    82.14000000    47.63000000
   H     70.93000000    83.79000000    48.84000000
   H     69.04000000    84.38000000    47.80000000
   H     69.37000000    81.73000000    48.16000000
   H     69.20000000    81.57000000    46.51000000
   H     67.23000000    82.31000000    45.34000000
   H     67.50000000    82.09000000    49.57000000
   H     64.69000000    82.11000000    45.50000000
   H     64.90000000    82.07000000    49.78000000
   H     63.62000000    82.01000000    47.63000000
   N     69.61000000    85.54000000    45.69000000
   C     69.63000000    86.22000000    44.41000000
   C     70.96000000    86.13000000    43.68000000
   O     70.99000000    86.48000000    42.50000000
   C     69.32000000    87.68000000    44.71000000
   C     69.87000000    87.86000000    46.12000000
   C     69.63000000    86.50000000    46.77000000
   H     68.84000000    85.79000000    43.78000000
   H     69.86000000    88.44000000    44.14000000
   H     68.25000000    87.88000000    44.70000000
   H     70.95000000    87.99000000    46.08000000
   H     69.38000000    88.63000000    46.72000000
   H     70.46000000    86.27000000    47.43000000
   H     68.70000000    86.58000000    47.34000000
   N     72.08000000    85.68000000    44.24000000
   C     73.35000000    85.45000000    43.57000000
   C     73.23000000    84.22000000    42.68000000
   O     73.71000000    84.15000000    41.55000000
   C     74.49000000    85.33000000    44.58000000
   C     75.88000000    85.07000000    44.01000000
   C     76.93000000    85.25000000    45.09000000
   O     77.40000000    84.29000000    45.75000000
   O     77.37000000    86.39000000    45.33000000
   H     71.97000000    85.40000000    45.20000000
   H     73.63000000    86.29000000    42.95000000
   H     74.24000000    84.53000000    45.27000000
   H     74.45000000    86.29000000    45.10000000
   H     76.20000000    85.77000000    43.24000000
   H     75.86000000    84.07000000    43.58000000
   N     72.66000000    83.17000000    43.26000000
   C     72.34000000    81.93000000    42.57000000
   H     71.45100000    82.07500000    41.95700000
   H     73.17600000    81.64200000    41.93300000
   H     72.15200000    81.14400000    43.30200000
   H     72.44000000    83.23000000    44.25000000
  Ca     77.99000000    85.40000000    47.94000000
   O     77.31000000    83.38000000    49.64000000
   H     77.52000000    82.54000000    49.23000000
   H     76.92000000    83.15000000    50.48000000
   O     76.24000000    88.07000000    47.12000000
   H     76.82000000    87.85000000    46.39000000
   H     75.70000000    87.29000000    47.24000000
   O     80.02000000    85.64000000    50.00000000
   H     80.38000000    85.83000000    50.87000000
   H     80.71000000    85.91000000    49.40000000
   O     79.18000000    87.95000000    47.68000000
   H     78.64000000    88.66000000    48.03000000
   H     80.03000000    88.35000000    47.53000000

Ca 1.70



