%chk=loop3.cluster183.chk
%nprocshared=48
%mem=10GB
%nosave
#b3lyp/svp scf=(tight,noincore) Test 
#IOP(5/87=12) Density=Current Pop=(MK,readradii) iop(6/33=2) iop(6/42=6)

loop3.cluster183 

   0  1 
   C     94.58000000    58.35000000    25.57000000
   C     95.18000000    56.97000000    25.80000000
   O     94.86000000    56.28000000    26.77000000
   H     93.63000000    58.42500000    26.09900000
   H     95.26500000    59.11100000    25.94300000
   H     94.41400000    58.50100000    24.50300000
   N     96.12000000    56.61000000    24.92000000
   C     96.96000000    55.43000000    25.03000000
   C     98.45000000    55.63000000    25.28000000
   O     98.94000000    56.57000000    24.64000000
   C     96.62000000    54.41000000    23.95000000
   C     97.51000000    53.18000000    24.02000000
   O     97.56000000    52.52000000    25.08000000
   O     98.26000000    52.88000000    23.06000000
   H     96.36000000    57.21000000    24.15000000
   H     96.65000000    54.90000000    25.93000000
   H     96.65000000    54.97000000    23.01000000
   H     95.63000000    53.95000000    24.06000000
   N     99.16000000    54.88000000    26.12000000
   C    100.46000000    55.16000000    26.70000000
   C    101.71000000    54.87000000    25.89000000
   O    102.83000000    55.21000000    26.27000000
   C    100.59000000    54.41000000    28.03000000
   C    100.58000000    52.89000000    27.87000000
   C    100.83000000    52.23000000    29.23000000
   C    100.76000000    50.71000000    29.21000000
   N    102.00000000    50.06000000    28.75000000
   H     98.56000000    54.18000000    26.54000000
   H    100.52000000    56.20000000    27.01000000
   H     99.71000000    54.70000000    28.60000000
   H    101.51000000    54.75000000    28.49000000
   H    101.45000000    52.68000000    27.24000000
   H     99.64000000    52.55000000    27.45000000
   H    100.03000000    52.52000000    29.91000000
   H    101.76000000    52.59000000    29.66000000
   H     99.96000000    50.34000000    28.57000000
   H    100.60000000    50.30000000    30.21000000
   H    102.86000000    50.52000000    29.01000000
   H    101.93000000    49.06000000    28.86000000
   H    102.00000000    50.05000000    27.74000000
   N    101.61000000    54.41000000    24.64000000
   C    102.63000000    54.53000000    23.62000000
   C    102.45000000    55.68000000    22.64000000
   O    103.25000000    56.01000000    21.76000000
   C    102.85000000    53.19000000    22.93000000
   C    101.63000000    52.65000000    22.20000000
   O    100.98000000    53.39000000    21.43000000
   O    101.28000000    51.45000000    22.24000000
   H    100.70000000    54.05000000    24.39000000
   H    103.60000000    54.73000000    24.07000000
   H    103.10000000    52.45000000    23.69000000
   H    103.64000000    53.32000000    22.19000000
   N    101.31000000    56.36000000    22.78000000
   C    100.80000000    57.47000000    22.02000000
   C    100.36000000    57.05000000    20.62000000
   O     99.55000000    57.82000000    20.10000000
   H    100.80000000    56.13000000    23.63000000
   H    101.63000000    58.18000000    21.99000000
   H     99.91000000    57.79000000    22.57000000
   N    100.77000000    55.95000000    19.98000000
   C    100.51000000    55.62000000    18.60000000
   C     99.14000000    54.97000000    18.50000000
   O     98.87000000    54.03000000    19.25000000
   C    101.61000000    54.64000000    18.18000000
   C    101.46000000    54.32000000    16.71000000
   N    101.20000000    53.09000000    16.25000000
   O    101.80000000    55.17000000    15.89000000
   H    101.08000000    55.19000000    20.57000000
   H    100.69000000    56.52000000    18.00000000
   H    101.52000000    53.70000000    18.72000000
   H    102.62000000    55.02000000    18.36000000
   H    101.00000000    52.36000000    16.92000000
   H    101.40000000    52.93000000    15.27000000
   N     98.29000000    55.19000000    17.50000000
   C     96.86000000    54.97000000    17.56000000
   C     96.40000000    53.58000000    17.16000000
   O     95.21000000    53.32000000    17.36000000
   H     98.62000000    55.90000000    16.86000000
   H     96.61000000    55.83000000    16.93000000
   H     96.52000000    55.12000000    18.58000000
   N     97.30000000    52.71000000    16.70000000
   C     97.04000000    51.33000000    16.33000000
   C     96.95000000    50.41000000    17.54000000
   O     97.69000000    50.74000000    18.46000000
   C     98.25000000    50.96000000    15.49000000
   C     98.04000000    51.43000000    14.07000000
   C     97.39000000    50.54000000    13.20000000
   C     98.68000000    52.57000000    13.59000000
   C     97.23000000    50.88000000    11.85000000
   C     98.59000000    52.91000000    12.23000000
   C     97.87000000    52.04000000    11.39000000
   O     97.79000000    52.24000000    10.04000000
   H     98.26000000    52.98000000    16.55000000
   H     96.10000000    51.26000000    15.78000000
   H     98.43000000    49.89000000    15.53000000
   H     99.17000000    51.46000000    15.79000000
   H     96.97000000    49.59000000    13.48000000
   H     99.26000000    53.14000000    14.30000000
   H     96.68000000    50.27000000    11.15000000
   H     99.24000000    53.67000000    11.80000000
   H     98.27000000    53.05000000     9.86000000
   N     96.08000000    49.39000000    17.45000000
   C     95.84000000    48.36000000    18.44000000
   C     96.97000000    47.36000000    18.63000000
   O     98.14000000    47.71000000    18.67000000
   C     95.15000000    49.04000000    19.61000000
   C     94.93000000    48.10000000    20.80000000
   C     93.79000000    49.46000000    19.06000000
   C     94.39000000    48.80000000    22.04000000
   H     95.55000000    49.40000000    16.59000000
   H     95.08000000    47.73000000    17.98000000
   H     95.74000000    49.90000000    19.92000000
   H     95.84000000    47.64000000    21.16000000
   H     94.18000000    47.38000000    20.45000000
   H     93.88000000    50.14000000    18.21000000
   H     93.16000000    48.62000000    18.77000000
   H     93.16000000    49.93000000    19.81000000
   H     93.33000000    48.96000000    21.87000000
   H     94.56000000    48.18000000    22.92000000
   H     94.88000000    49.77000000    22.14000000
   N     96.62000000    46.11000000    18.95000000
   C     97.53000000    45.09000000    19.44000000
   C     97.12000000    43.69000000    19.02000000
   O     97.91000000    42.76000000    19.15000000
   C     97.65000000    45.12000000    20.96000000
   O     96.39000000    44.97000000    21.57000000
   H     95.64000000    45.87000000    19.02000000
   H     98.50000000    45.37000000    19.03000000
   H     98.21000000    46.01000000    21.25000000
   H     98.31000000    44.34000000    21.32000000
   H     96.61000000    45.04000000    22.50000000
   N     95.87000000    43.48000000    18.58000000
   C     95.17000000    42.22000000    18.42000000
   C     95.67000000    41.07000000    19.28000000
   O     96.20000000    40.08000000    18.79000000
   C     95.20000000    41.90000000    16.93000000
   H     95.35000000    44.32000000    18.39000000
   H     94.11000000    42.42000000    18.62000000
   H     94.57000000    41.01000000    16.81000000
   H     94.83000000    42.71000000    16.31000000
   H     96.21000000    41.65000000    16.61000000
   N     95.43000000    41.10000000    20.60000000
   C     94.75000000    42.07000000    21.43000000
   C     93.29000000    41.65000000    21.50000000
   O     92.96000000    40.47000000    21.49000000
   C     95.33000000    42.11000000    22.84000000
   H     95.62000000    40.17000000    20.95000000
   H     94.87000000    43.04000000    20.95000000
   H     95.20000000    41.09000000    23.19000000
   H     96.38000000    42.42000000    22.83000000
   H     94.75000000    42.68000000    23.57000000
   N     92.29000000    42.53000000    21.59000000
   C     92.42000000    43.97000000    21.49000000
   C     91.43000000    44.48000000    20.46000000
   O     91.60000000    45.55000000    19.88000000
   C     92.19000000    44.58000000    22.87000000
   C     92.62000000    46.03000000    23.04000000
   C     92.55000000    46.50000000    24.49000000
   O     91.42000000    46.83000000    24.93000000
   O     93.57000000    46.45000000    25.21000000
   H     91.41000000    42.10000000    21.83000000
   H     93.44000000    44.26000000    21.24000000
   H     92.81000000    44.07000000    23.61000000
   H     91.17000000    44.48000000    23.24000000
   H     92.06000000    46.72000000    22.41000000
   H     93.66000000    46.11000000    22.73000000
   N     90.39000000    43.72000000    20.12000000
   C     89.36000000    44.15000000    19.19000000
   H     88.51100000    44.54700000    19.74700000
   H     89.76000000    44.92600000    18.53700000
   H     89.03500000    43.30100000    18.58900000
   H     90.20000000    42.95000000    20.75000000
  Ca     98.82000000    51.84000000    20.77000000
   O     96.23000000    52.51000000    20.49000000
   H     95.53000000    51.90000000    20.70000000
   H     95.78000000    53.32000000    20.25000000
   O     97.86000000    50.23000000    22.48000000
   H     97.64000000    49.30000000    22.54000000
   H     97.80000000    50.55000000    23.38000000
   O    100.66900000    51.40000000    18.82000000
   H    101.59900000    51.59000000    18.70000000
   H    100.63900000    50.47000000    19.03000000
   O     99.79900000    49.29000000    20.47000000
   H    100.38900000    48.88000000    21.10000000
   H     99.53900000    48.58000000    19.88000000

Ca 1.70



