%chk=loop4.cluster95.chk
%nprocshared=48
%mem=10GB
%nosave
#b3lyp/svp scf=(tight,noincore) Test 
#IOP(5/87=12) Density=Current Pop=(MK,readradii) iop(6/33=2) iop(6/42=6)

loop4.cluster95 

   -3  1 
   C     53.74000000    17.94000000    38.88000000
   C     54.08000000    17.27000000    40.19000000
   O     54.82000000    17.85000000    40.98000000
   H     52.91100000    18.63100000    39.03100000
   H     54.60800000    18.48900000    38.51600000
   H     53.45400000    17.18400000    38.14800000
   N     53.57000000    16.05000000    40.36000000
   C     53.73000000    15.13000000    41.47000000
   C     53.27000000    15.69000000    42.81000000
   O     54.03000000    15.85000000    43.76000000
   C     55.17000000    14.63000000    41.56000000
   C     55.81000000    14.23000000    40.24000000
   O     56.94000000    14.68000000    39.98000000
   O     55.10000000    13.56000000    39.45000000
   H     53.12000000    15.61000000    39.57000000
   H     53.11000000    14.25000000    41.27000000
   H     55.23000000    13.76000000    42.21000000
   H     55.84000000    15.36000000    42.02000000
   N     52.08000000    16.30000000    42.90000000
   C     51.61000000    17.02000000    44.07000000
   C     50.71000000    16.03000000    44.79000000
   O     49.87000000    15.37000000    44.18000000
   C     50.90000000    18.29000000    43.61000000
   C     51.91000000    19.20000000    42.92000000
   C     50.18000000    18.93000000    44.79000000
   C     51.21000000    20.31000000    42.14000000
   H     51.43000000    16.16000000    42.15000000
   H     52.39000000    17.37000000    44.75000000
   H     50.21000000    17.97000000    42.83000000
   H     52.48000000    18.60000000    42.21000000
   H     52.62000000    19.60000000    43.65000000
   H     49.68000000    19.71000000    44.20000000
   H     49.58000000    18.17000000    45.29000000
   H     50.88000000    19.39000000    45.47000000
   H     50.35000000    19.85000000    41.65000000
   H     50.90000000    21.04000000    42.89000000
   H     51.87000000    20.77000000    41.40000000
   N     50.86000000    15.70000000    46.07000000
   C     51.84000000    16.11000000    47.06000000
   C     53.13000000    15.30000000    46.92000000
   O     54.14000000    15.82000000    47.38000000
   C     51.24000000    15.95000000    48.46000000
   C     50.37000000    14.72000000    48.68000000
   O     50.01000000    14.55000000    49.86000000
   O     50.03000000    13.94000000    47.77000000
   H     50.14000000    15.06000000    46.37000000
   H     52.18000000    17.14000000    46.95000000
   H     50.70000000    16.88000000    48.64000000
   H     52.15000000    15.84000000    49.05000000
   N     53.06000000    14.16000000    46.22000000
   C     54.19000000    13.27000000    46.11000000
   C     54.77000000    12.91000000    47.48000000
   O     54.06000000    12.60000000    48.43000000
   H     52.19000000    13.91000000    45.78000000
   H     54.89000000    13.85000000    45.52000000
   H     53.81000000    12.44000000    45.52000000
   N     56.09000000    12.93000000    47.72000000
   C     56.80000000    12.81000000    48.97000000
   C     56.54000000    13.96000000    49.93000000
   O     56.73000000    13.72000000    51.12000000
   C     58.31000000    12.81000000    48.74000000
   C     58.89000000    14.01000000    48.03000000
   O     59.02000000    14.02000000    46.78000000
   O     59.31000000    14.93000000    48.77000000
   H     56.63000000    13.14000000    46.89000000
   H     56.48000000    11.85000000    49.37000000
   H     58.57000000    11.87000000    48.24000000
   H     58.88000000    12.55000000    49.64000000
   N     56.02000000    15.10000000    49.48000000
   C     55.36000000    15.98000000    50.41000000
   C     56.38000000    16.88000000    51.10000000
   O     55.99000000    17.97000000    51.51000000
   H     55.85000000    15.20000000    48.49000000
   H     54.76000000    15.35000000    51.08000000
   H     54.57000000    16.54000000    49.90000000
   N     57.64000000    16.44000000    51.19000000
   C     58.69000000    17.14000000    51.91000000
   C     59.13000000    18.48000000    51.34000000
   O     60.06000000    19.14000000    51.80000000
   C     58.46000000    17.09000000    53.41000000
   C     58.38000000    15.62000000    53.82000000
   C     58.47000000    15.49000000    55.33000000
   N     58.34000000    14.24000000    55.77000000
   O     58.65000000    16.45000000    56.08000000
   H     57.80000000    15.49000000    50.91000000
   H     59.62000000    16.62000000    51.68000000
   H     57.49000000    17.49000000    53.69000000
   H     59.30000000    17.54000000    53.95000000
   H     59.15000000    15.04000000    53.31000000
   H     57.39000000    15.20000000    53.60000000
   H     58.23000000    13.42000000    55.18000000
   H     58.23000000    14.22000000    56.77000000
   N     58.57000000    19.01000000    50.24000000
   C     59.04000000    20.16000000    49.51000000
   C     60.47000000    19.91000000    49.05000000
   O     60.80000000    18.89000000    48.44000000
   C     58.07000000    20.51000000    48.39000000
   C     56.75000000    20.96000000    49.01000000
   C     58.47000000    21.75000000    47.59000000
   H     58.06000000    18.31000000    49.73000000
   H     59.13000000    20.97000000    50.24000000
   H     57.82000000    19.72000000    47.68000000
   H     56.12000000    21.27000000    48.18000000
   H     56.15000000    20.23000000    49.57000000
   H     56.98000000    21.81000000    49.64000000
   H     59.47000000    21.47000000    47.23000000
   H     57.76000000    21.88000000    46.78000000
   H     58.57000000    22.64000000    48.20000000
   N     61.31000000    20.86000000    49.44000000
   C     62.63000000    21.05000000    48.86000000
   C     62.52000000    21.53000000    47.42000000
   O     61.68000000    22.34000000    47.04000000
   C     63.56000000    21.99000000    49.61000000
   C     64.96000000    22.03000000    49.01000000
   N     65.68000000    20.96000000    49.34000000
   O     65.35000000    22.93000000    48.26000000
   H     60.91000000    21.65000000    49.92000000
   H     63.11000000    20.07000000    48.86000000
   H     63.64000000    21.65000000    50.65000000
   H     63.15000000    22.99000000    49.58000000
   H     65.26000000    20.40000000    50.06000000
   H     66.48000000    20.67000000    48.78000000
   N     63.38000000    20.99000000    46.55000000
   C     63.56000000    21.38000000    45.17000000
   C     64.35000000    20.33000000    44.40000000
   O     65.28000000    19.72000000    44.94000000
   C     64.42000000    22.64000000    45.13000000
   C     64.80000000    23.28000000    43.82000000
   C     63.81000000    23.79000000    42.98000000
   C     66.15000000    23.34000000    43.46000000
   C     64.11000000    24.32000000    41.72000000
   C     66.44000000    23.84000000    42.18000000
   C     65.45000000    24.29000000    41.28000000
   O     65.87000000    24.72000000    40.06000000
   H     63.96000000    20.24000000    46.90000000
   H     62.56000000    21.64000000    44.82000000
   H     65.34000000    22.37000000    45.65000000
   H     63.98000000    23.44000000    45.73000000
   H     62.75000000    23.75000000    43.20000000
   H     66.97000000    22.95000000    44.05000000
   H     63.36000000    24.71000000    41.05000000
   H     67.45000000    23.61000000    41.87000000
   H     66.79000000    24.43000000    40.02000000
   N     64.05000000    20.20000000    43.10000000
   C     64.73000000    19.26000000    42.24000000
   C     64.69000000    19.80000000    40.81000000
   O     65.75000000    20.32000000    40.50000000
   C     64.27000000    17.81000000    42.37000000
   C     65.19000000    16.77000000    41.74000000
   C     64.52000000    15.43000000    41.48000000
   O     64.63000000    14.91000000    40.35000000
   O     64.16000000    14.69000000    42.42000000
   H     63.42000000    20.86000000    42.68000000
   H     65.75000000    19.31000000    42.60000000
   H     63.24000000    17.71000000    42.02000000
   H     64.31000000    17.50000000    43.42000000
   H     66.12000000    16.67000000    42.30000000
   H     65.56000000    17.24000000    40.83000000
   N     63.64000000    19.89000000    39.98000000
   C     62.21000000    19.86000000    40.19000000
   C     61.63000000    21.07000000    39.47000000
   O     62.39000000    21.76000000    38.78000000
   C     61.70000000    18.55000000    39.60000000
   C     61.90000000    18.43000000    38.10000000
   C     61.71000000    16.96000000    37.74000000
   O     60.63000000    16.39000000    38.02000000
   O     62.57000000    16.31000000    37.12000000
   H     63.92000000    20.27000000    39.09000000
   H     61.96000000    20.00000000    41.24000000
   H     60.61000000    18.47000000    39.67000000
   H     62.27000000    17.81000000    40.17000000
   H     62.92000000    18.75000000    37.90000000
   H     61.18000000    19.03000000    37.53000000
   N     60.32000000    21.28000000    39.62000000
   C     59.53000000    22.38000000    39.13000000
   H     58.60700000    22.44900000    39.70600000
   H     60.09300000    23.30700000    39.23400000
   H     59.29000000    22.21600000    38.07900000
   H     59.85000000    20.59000000    40.20000000
  Ca     58.07000000    15.86000000    37.73000000
   O     59.67000000    13.75000000    38.44000000
   H     59.49000000    13.36000000    39.29000000
   H     60.61000000    13.90000000    38.44000000
   O     57.88000000    18.14000000    39.15000000
   H     56.94000000    18.26000000    39.24000000
   H     58.25000000    18.50000000    39.96000000
   O     56.33000000    13.79000000    37.17000000
   H     55.80000000    13.71000000    37.97000000
   H     56.13000000    13.00000000    36.68000000
   O     58.53000000    17.94000000    36.21000000
   H     58.79000000    17.89000000    35.29000000
   H     58.34000000    18.87000000    36.35000000
   O     58.01000000    15.28000000    35.27000000
   H     58.61000000    15.57000000    34.58000000
   H     57.29000000    14.86000000    34.80000000

Ca 1.70



