%chk=loop3.cluster155.chk
%nprocshared=48
%mem=10GB
%nosave
#b3lyp/svp scf=(tight,noincore) Test 
#IOP(5/87=12) Density=Current Pop=(MK,readradii) iop(6/33=2) iop(6/42=6)

loop3.cluster155 

   0  1 
   C    104.15000000    59.32000000    20.91000000
   C    105.27000000    58.41000000    20.43000000
   O    105.10000000    57.20000000    20.38000000
   H    103.26400000    58.72300000    21.12400000
   H    104.46500000    59.83900000    21.81500000
   H    103.91700000    60.05000000    20.13500000
   N    106.46000000    58.96000000    20.15000000
   C    107.63000000    58.22000000    19.74000000
   C    108.12000000    57.19000000    20.75000000
   O    107.67000000    56.05000000    20.71000000
   C    108.73000000    59.20000000    19.36000000
   C    108.91000000    60.33000000    20.37000000
   O    109.83000000    60.29000000    21.22000000
   O    108.03000000    61.21000000    20.33000000
   H    106.51000000    59.96000000    19.99000000
   H    107.35000000    57.62000000    18.87000000
   H    108.35000000    59.57000000    18.40000000
   H    109.60000000    58.58000000    19.12000000
   N    108.84000000    57.56000000    21.82000000
   C    109.37000000    56.63000000    22.79000000
   C    110.53000000    55.90000000    22.13000000
   O    111.66000000    56.20000000    22.52000000
   C    109.71000000    57.34000000    24.10000000
   C    110.17000000    56.34000000    25.16000000
   C    110.14000000    56.79000000    26.61000000
   C    108.73000000    56.85000000    27.20000000
   N    108.09000000    55.54000000    27.35000000
   H    109.11000000    58.52000000    21.90000000
   H    108.55000000    55.94000000    22.99000000
   H    108.84000000    57.92000000    24.39000000
   H    110.55000000    58.02000000    24.06000000
   H    111.23000000    56.22000000    24.91000000
   H    109.81000000    55.32000000    25.04000000
   H    110.59000000    57.78000000    26.46000000
   H    110.71000000    56.16000000    27.29000000
   H    108.18000000    57.53000000    26.55000000
   H    108.73000000    57.30000000    28.19000000
   H    107.58000000    55.13000000    26.58000000
   H    108.72000000    54.82000000    27.66000000
   H    107.41000000    55.52000000    28.10000000
   N    110.28000000    54.96000000    21.22000000
   C    111.17000000    53.97000000    20.65000000
   C    110.56000000    53.50000000    19.33000000
   O    110.95000000    52.45000000    18.83000000
   C    111.45000000    52.82000000    21.61000000
   C    110.17000000    52.18000000    22.13000000
   O    109.35000000    52.84000000    22.80000000
   O    109.96000000    51.00000000    21.75000000
   H    109.31000000    54.84000000    20.96000000
   H    112.04000000    54.58000000    20.40000000
   H    111.97000000    53.31000000    22.43000000
   H    112.03000000    52.06000000    21.09000000
   N    109.64000000    54.23000000    18.70000000
   C    108.93000000    53.83000000    17.50000000
   C    107.72000000    54.68000000    17.14000000
   O    107.23000000    55.42000000    17.99000000
   H    109.46000000    55.16000000    19.05000000
   H    108.66000000    52.79000000    17.70000000
   H    109.57000000    53.85000000    16.62000000
   N    107.18000000    54.75000000    15.92000000
   C    107.51000000    54.04000000    14.70000000
   C    106.30000000    53.50000000    13.95000000
   O    105.47000000    54.27000000    13.49000000
   C    108.35000000    55.04000000    13.91000000
   C    109.07000000    54.42000000    12.72000000
   N    108.84000000    54.89000000    11.49000000
   O    109.86000000    53.48000000    12.82000000
   H    106.41000000    55.40000000    15.96000000
   H    108.07000000    53.15000000    15.01000000
   H    109.17000000    55.39000000    14.52000000
   H    107.75000000    55.89000000    13.58000000
   H    108.17000000    55.63000000    11.33000000
   H    109.54000000    54.63000000    10.81000000
   N    106.17000000    52.18000000    13.76000000
   C    107.07000000    51.13000000    14.17000000
   C    106.70000000    50.68000000    15.57000000
   O    106.98000000    51.42000000    16.51000000
   H    105.45000000    51.89000000    13.11000000
   H    108.12000000    51.37000000    14.05000000
   H    106.93000000    50.28000000    13.50000000
   N    105.94000000    49.59000000    15.75000000
   C    105.39000000    49.15000000    17.02000000
   C    105.90000000    47.79000000    17.47000000
   O    106.22000000    46.93000000    16.65000000
   C    103.88000000    49.37000000    17.07000000
   C    103.42000000    50.78000000    16.77000000
   C    103.04000000    51.50000000    17.91000000
   C    103.25000000    51.34000000    15.50000000
   C    102.56000000    52.81000000    17.76000000
   C    102.89000000    52.69000000    15.35000000
   C    102.51000000    53.43000000    16.49000000
   O    102.18000000    54.75000000    16.45000000
   H    105.58000000    49.19000000    14.90000000
   H    105.70000000    49.82000000    17.82000000
   H    103.56000000    49.09000000    18.07000000
   H    103.38000000    48.72000000    16.35000000
   H    103.02000000    51.04000000    18.88000000
   H    103.62000000    50.84000000    14.62000000
   H    102.22000000    53.38000000    18.60000000
   H    102.98000000    53.21000000    14.41000000
   H    102.42000000    55.15000000    15.61000000
   N    105.92000000    47.56000000    18.78000000
   C    106.17000000    46.28000000    19.41000000
   C    104.91000000    45.47000000    19.65000000
   O    105.06000000    44.26000000    19.82000000
   C    107.00000000    46.43000000    20.68000000
   C    106.05000000    47.06000000    21.70000000
   C    107.65000000    45.13000000    21.13000000
   C    106.77000000    47.74000000    22.86000000
   H    105.65000000    48.37000000    19.32000000
   H    106.82000000    45.71000000    18.74000000
   H    107.81000000    47.11000000    20.37000000
   H    105.32000000    46.35000000    22.09000000
   H    105.53000000    47.92000000    21.27000000
   H    108.37000000    45.45000000    21.88000000
   H    107.02000000    44.35000000    21.55000000
   H    108.22000000    44.61000000    20.35000000
   H    107.18000000    48.71000000    22.56000000
   H    106.13000000    47.89000000    23.72000000
   H    107.58000000    47.11000000    23.22000000
   N    103.72000000    46.07000000    19.53000000
   C    102.45000000    45.39000000    19.65000000
   C    101.84000000    45.25000000    21.04000000
   O    101.11000000    44.29000000    21.30000000
   C    101.49000000    46.16000000    18.74000000
   O    101.98000000    46.16000000    17.42000000
   H    103.80000000    47.08000000    19.54000000
   H    102.67000000    44.47000000    19.11000000
   H    101.46000000    47.20000000    19.08000000
   H    100.53000000    45.64000000    18.78000000
   H    101.76000000    45.34000000    16.97000000
   N    102.14000000    46.12000000    22.00000000
   C    101.50000000    46.11000000    23.30000000
   C    101.80000000    47.41000000    24.03000000
   O    102.62000000    48.20000000    23.59000000
   C    102.14000000    44.99000000    24.12000000
   H    102.83000000    46.83000000    21.78000000
   H    100.44000000    45.87000000    23.17000000
   H    101.80000000    45.01000000    25.16000000
   H    101.82000000    44.02000000    23.73000000
   H    103.22000000    45.07000000    24.20000000
   N    101.12000000    47.74000000    25.13000000
   C    101.37000000    48.82000000    26.06000000
   C    101.47000000    50.26000000    25.56000000
   O    102.37000000    51.05000000    25.84000000
   C    102.52000000    48.41000000    26.98000000
   H    100.33000000    47.13000000    25.31000000
   H    100.49000000    48.93000000    26.70000000
   H    103.45000000    48.36000000    26.41000000
   H    102.63000000    49.21000000    27.71000000
   H    102.41000000    47.49000000    27.54000000
   N    100.64000000    50.65000000    24.59000000
   C    100.45000000    52.02000000    24.16000000
   C     98.99000000    52.41000000    23.96000000
   O     98.60000000    53.55000000    24.19000000
   C    101.25000000    52.29000000    22.89000000
   C    102.74000000    52.42000000    23.15000000
   C    103.34000000    53.10000000    21.92000000
   O    104.32000000    52.65000000    21.30000000
   O    102.99000000    54.25000000    21.57000000
   H    100.04000000    49.91000000    24.24000000
   H    100.79000000    52.81000000    24.82000000
   H    100.80000000    53.22000000    22.55000000
   H    101.12000000    51.43000000    22.22000000
   H    103.15000000    51.41000000    23.23000000
   H    102.95000000    52.97000000    24.08000000
   N     98.13000000    51.50000000    23.50000000
   C     96.77000000    51.67000000    23.03000000
   H     96.15300000    52.06000000    23.83900000
   H     96.75800000    52.37100000    22.19500000
   H     96.37500000    50.70800000    22.70300000
   H     98.39000000    50.52000000    23.43000000
  Ca    105.47900000    54.69000000    20.30000000
   O    105.48900000    52.86000000    18.30000000
   H    104.57900000    52.57000000    18.37000000
   H    105.79900000    52.49000000    17.48000000
   O    105.87900000    54.98000000    22.90000000
   H    105.40900000    55.43000000    23.60000000
   H    106.42900000    54.34000000    23.35000000
   O    103.35900000    55.74000000    19.00000000
   H    102.62900000    55.60000000    19.60000000
   H    102.95900000    56.06000000    18.20000000
   O    107.53900000    53.22000000    20.94000000
   H    107.66900000    52.61000000    20.21000000
   H    107.99900000    52.81000000    21.67000000

Ca 1.70



