%chk=loop3.cluster159.chk
%nprocshared=48
%mem=10GB
%nosave
#b3lyp/svp scf=(tight,noincore) Test 
#IOP(5/87=12) Density=Current Pop=(MK,readradii) iop(6/33=2) iop(6/42=6)

loop3.cluster159 

   0  1 
   C     81.95000000    76.19000000    25.48000000
   C     83.45000000    76.27000000    25.72000000
   O     84.02000000    75.38000000    26.35000000
   H     81.47100000    77.08500000    25.87700000
   H     81.75600000    76.11900000    24.41000000
   H     81.54800000    75.31000000    25.98200000
   N     84.19000000    77.20000000    25.12000000
   C     85.64000000    77.24000000    25.15000000
   C     86.17000000    77.80000000    26.46000000
   O     86.73000000    77.03000000    27.24000000
   C     86.20000000    78.02000000    23.97000000
   C     85.55000000    79.37000000    23.68000000
   O     86.21000000    80.03000000    22.85000000
   O     84.61000000    79.82000000    24.37000000
   H     83.67000000    77.80000000    24.50000000
   H     86.03000000    76.22000000    25.07000000
   H     86.05000000    77.38000000    23.10000000
   H     87.27000000    78.22000000    24.07000000
   N     85.75000000    79.02000000    26.81000000
   C     86.20000000    79.69000000    28.01000000
   C     87.71000000    79.55000000    28.16000000
   O     88.51000000    80.29000000    27.60000000
   C     85.72000000    81.14000000    27.94000000
   C     86.02000000    81.92000000    29.21000000
   C     85.20000000    83.20000000    29.35000000
   C     85.63000000    83.89000000    30.64000000
   N     85.23000000    85.31000000    30.64000000
   H     85.22000000    79.47000000    26.08000000
   H     85.68000000    79.23000000    28.86000000
   H     84.64000000    81.19000000    27.79000000
   H     86.20000000    81.63000000    27.09000000
   H     87.09000000    82.12000000    29.32000000
   H     85.80000000    81.30000000    30.08000000
   H     84.13000000    82.97000000    29.41000000
   H     85.38000000    83.88000000    28.51000000
   H     86.71000000    83.77000000    30.75000000
   H     85.23000000    83.36000000    31.50000000
   H     85.55000000    85.81000000    29.82000000
   H     84.25000000    85.46000000    30.81000000
   H     85.57000000    85.78000000    31.47000000
   N     88.04000000    78.64000000    29.07000000
   C     89.41000000    78.35000000    29.45000000
   C     90.24000000    77.65000000    28.38000000
   O     91.46000000    77.58000000    28.48000000
   C     89.40000000    77.44000000    30.67000000
   C     88.77000000    76.05000000    30.63000000
   O     89.25000000    75.07000000    31.25000000
   O     87.75000000    75.87000000    29.94000000
   H     87.27000000    78.01000000    29.24000000
   H     89.84000000    79.31000000    29.74000000
   H     88.91000000    77.90000000    31.53000000
   H     90.45000000    77.39000000    30.98000000
   N     89.58000000    77.10000000    27.36000000
   C     90.22000000    76.31000000    26.32000000
   C     90.35000000    77.05000000    24.99000000
   O     90.31000000    78.27000000    24.96000000
   H     88.57000000    77.18000000    27.40000000
   H     89.54000000    75.48000000    26.13000000
   H     91.19000000    75.87000000    26.54000000
   N     90.66000000    76.45000000    23.84000000
   C     90.51000000    75.03000000    23.60000000
   C     89.05000000    74.62000000    23.76000000
   O     88.12000000    75.38000000    23.51000000
   C     90.97000000    74.78000000    22.17000000
   C     90.99000000    73.32000000    21.76000000
   N     90.01000000    72.76000000    21.06000000
   O     92.01000000    72.70000000    22.06000000
   H     90.80000000    77.05000000    23.04000000
   H     91.23000000    74.52000000    24.24000000
   H     91.97000000    75.21000000    22.15000000
   H     90.34000000    75.37000000    21.50000000
   H     89.20000000    73.27000000    20.73000000
   H     90.22000000    71.84000000    20.69000000
   N     88.69000000    73.38000000    24.08000000
   C     89.50000000    72.27000000    24.56000000
   C     88.97000000    71.40000000    25.69000000
   O     87.88000000    71.61000000    26.21000000
   H     87.69000000    73.24000000    24.07000000
   H     90.42000000    72.70000000    24.93000000
   H     89.60000000    71.56000000    23.74000000
   N     89.88000000    70.55000000    26.18000000
   C     89.70000000    69.79000000    27.39000000
   C     90.87000000    70.05000000    28.33000000
   O     91.99000000    70.37000000    27.92000000
   C     89.64000000    68.34000000    26.92000000
   C     88.38000000    67.96000000    26.17000000
   C     87.10000000    68.17000000    26.69000000
   C     88.47000000    67.42000000    24.88000000
   C     86.01000000    67.91000000    25.86000000
   C     87.40000000    67.19000000    24.01000000
   C     86.12000000    67.45000000    24.53000000
   O     85.03000000    67.11000000    23.79000000
   H     90.79000000    70.53000000    25.75000000
   H     88.75000000    69.98000000    27.89000000
   H     89.64000000    67.77000000    27.85000000
   H     90.53000000    68.03000000    26.37000000
   H     87.02000000    68.42000000    27.74000000
   H     89.43000000    67.18000000    24.44000000
   H     85.03000000    68.15000000    26.27000000
   H     87.43000000    66.84000000    22.99000000
   H     85.20000000    66.66000000    22.96000000
   N     90.74000000    69.83000000    29.64000000
   C     91.80000000    69.75000000    30.63000000
   C     91.92000000    68.37000000    31.24000000
   O     92.98000000    68.05000000    31.79000000
   C     91.65000000    70.86000000    31.67000000
   C     90.28000000    70.81000000    32.34000000
   C     92.79000000    71.06000000    32.66000000
   C     90.00000000    71.75000000    33.51000000
   H     89.80000000    69.57000000    29.90000000
   H     92.71000000    69.90000000    30.05000000
   H     91.60000000    71.75000000    31.05000000
   H     90.08000000    69.82000000    32.75000000
   H     89.44000000    70.92000000    31.65000000
   H     93.73000000    70.78000000    32.18000000
   H     92.83000000    72.11000000    32.95000000
   H     92.61000000    70.44000000    33.53000000
   H     88.95000000    71.62000000    33.75000000
   H     90.51000000    71.44000000    34.42000000
   H     90.18000000    72.79000000    33.25000000
   N     90.88000000    67.53000000    31.28000000
   C     90.88000000    66.13000000    31.65000000
   C     89.84000000    65.81000000    32.71000000
   O     90.05000000    64.82000000    33.41000000
   C     90.52000000    65.31000000    30.42000000
   O     89.29000000    65.70000000    29.86000000
   H     90.09000000    67.80000000    30.71000000
   H     91.88000000    65.80000000    31.95000000
   H     90.45000000    64.27000000    30.72000000
   H     91.35000000    65.49000000    29.74000000
   H     89.06000000    65.01000000    29.23000000
   N     88.83000000    66.63000000    33.01000000
   C     87.68000000    66.35000000    33.84000000
   C     86.59000000    67.38000000    33.57000000
   O     86.88000000    68.56000000    33.43000000
   C     88.04000000    66.43000000    35.32000000
   H     88.81000000    67.47000000    32.45000000
   H     87.30000000    65.33000000    33.70000000
   H     88.83000000    65.70000000    35.51000000
   H     88.37000000    67.43000000    35.62000000
   H     87.12000000    66.24000000    35.87000000
   N     85.34000000    66.90000000    33.56000000
   C     84.09000000    67.59000000    33.78000000
   C     83.70000000    68.87000000    33.05000000
   O     82.95000000    69.74000000    33.50000000
   C     83.84000000    67.52000000    35.28000000
   H     85.23000000    65.89000000    33.59000000
   H     83.32000000    66.94000000    33.36000000
   H     82.80000000    67.67000000    35.59000000
   H     84.20000000    66.54000000    35.60000000
   H     84.49000000    68.29000000    35.70000000
   N     84.03000000    68.84000000    31.76000000
   C     83.61000000    69.83000000    30.80000000
   C     82.31000000    69.42000000    30.11000000
   O     81.36000000    70.16000000    29.86000000
   C     84.78000000    69.98000000    29.84000000
   C     86.06000000    70.59000000    30.41000000
   C     85.86000000    72.04000000    30.80000000
   O     86.16000000    73.00000000    30.05000000
   O     85.23000000    72.29000000    31.85000000
   H     84.64000000    68.13000000    31.38000000
   H     83.33000000    70.76000000    31.29000000
   H     84.47000000    70.60000000    28.99000000
   H     85.01000000    69.01000000    29.40000000
   H     86.82000000    70.61000000    29.62000000
   H     86.39000000    69.97000000    31.24000000
   N     82.18000000    68.12000000    29.88000000
   C     81.01000000    67.39000000    29.43000000
   H     80.20700000    68.09300000    29.20700000
   H     81.25700000    66.82500000    28.53100000
   H     80.68500000    66.70500000    30.21300000
   H     83.02000000    67.58000000    30.02000000
  Ca     85.78000000    74.90000000    28.39000000
   O     83.25000000    74.29000000    29.11000000
   H     82.50000000    73.79000000    28.80000000
   H     83.20000000    74.24000000    30.06000000
   O     84.58000000    76.84000000    29.99000000
   H     84.48000000    77.77000000    29.80000000
   H     84.07000000    76.69000000    30.78000000
   O     85.51000000    72.69000000    27.03000000
   H     84.69000000    72.24000000    26.82000000
   H     86.18000000    72.21000000    26.56000000
   O     88.13000000    74.06000000    27.38000000
   H     88.29000000    73.18000000    27.06000000
   H     88.81000000    74.21000000    28.04000000

Ca 1.70



