%chk=loop1.cluster127.chk
%nprocshared=48
%mem=10GB
%nosave
#b3lyp/svp scf=(tight,noincore) Test 
#IOP(5/87=12) Density=Current Pop=(MK,readradii) iop(6/33=2) iop(6/42=6)

loop1.cluster127 

   0  1 
   C     66.53000000    51.07000000    20.61000000
   C     67.70000000    50.76000000    19.68000000
   O     68.02000000    49.61000000    19.41000000
   H     65.65000000    50.51500000    20.28400000
   H     66.78700000    50.77700000    21.62800000
   H     66.31600000    52.13800000    20.58200000
   N     68.39000000    51.83000000    19.27000000
   C     69.68000000    51.78000000    18.62000000
   C     70.77000000    51.40000000    19.61000000
   O     71.74000000    52.12000000    19.87000000
   C     69.99000000    53.03000000    17.80000000
   C     71.27000000    52.94000000    16.99000000
   O     71.96000000    53.96000000    16.78000000
   O     71.63000000    51.82000000    16.55000000
   H     67.97000000    52.68000000    19.61000000
   H     69.59000000    51.03000000    17.83000000
   H     69.96000000    53.91000000    18.44000000
   H     69.27000000    53.11000000    16.99000000
   N     70.71000000    50.18000000    20.13000000
   C     71.68000000    49.50000000    20.96000000
   C     73.04000000    49.33000000    20.29000000
   O     74.09000000    49.41000000    20.94000000
   C     71.00000000    48.24000000    21.49000000
   C     69.76000000    48.36000000    22.36000000
   C     69.61000000    46.97000000    22.98000000
   C     68.33000000    46.96000000    23.81000000
   N     67.22000000    46.82000000    22.87000000
   H     69.88000000    49.65000000    19.89000000
   H     71.85000000    50.12000000    21.84000000
   H     71.82000000    47.78000000    22.04000000
   H     70.76000000    47.58000000    20.66000000
   H     68.93000000    48.65000000    21.72000000
   H     69.97000000    49.20000000    23.02000000
   H     70.49000000    46.92000000    23.62000000
   H     69.48000000    46.26000000    22.16000000
   H     68.26000000    47.83000000    24.47000000
   H     68.32000000    46.09000000    24.47000000
   H     67.07000000    47.66000000    22.34000000
   H     67.27000000    46.05000000    22.21000000
   H     66.35000000    46.66000000    23.35000000
   N     73.13000000    48.94000000    19.02000000
   C     74.30000000    49.03000000    18.16000000
   C     75.01000000    50.35000000    17.93000000
   O     76.19000000    50.47000000    17.60000000
   C     74.06000000    48.17000000    16.92000000
   C     73.01000000    48.76000000    15.98000000
   O     71.88000000    48.25000000    16.06000000
   O     73.23000000    49.74000000    15.24000000
   H     72.27000000    48.81000000    18.51000000
   H     75.04000000    48.45000000    18.73000000
   H     73.73000000    47.19000000    17.27000000
   H     74.94000000    48.05000000    16.30000000
   N     74.25000000    51.44000000    18.05000000
   C     74.83000000    52.77000000    18.08000000
   C     75.30000000    53.21000000    16.70000000
   O     76.35000000    53.85000000    16.69000000
   H     73.24000000    51.48000000    18.11000000
   H     75.73000000    52.73000000    18.69000000
   H     74.15000000    53.52000000    18.49000000
   N     74.60000000    52.84000000    15.63000000
   C     74.92000000    53.23000000    14.27000000
   C     74.51000000    54.68000000    14.02000000
   O     75.22000000    55.37000000    13.30000000
   C     74.52000000    52.29000000    13.15000000
   C     73.04000000    51.93000000    13.00000000
   O     72.14000000    52.73000000    13.32000000
   O     72.76000000    50.85000000    12.45000000
   H     73.74000000    52.33000000    15.76000000
   H     76.00000000    53.24000000    14.12000000
   H     75.08000000    51.38000000    13.36000000
   H     74.88000000    52.59000000    12.17000000
   N     73.49000000    55.22000000    14.70000000
   C     72.82000000    56.50000000    14.67000000
   C     71.33000000    56.40000000    14.39000000
   O     70.69000000    57.45000000    14.39000000
   H     72.99000000    54.61000000    15.33000000
   H     73.31000000    57.07000000    13.88000000
   H     72.87000000    56.86000000    15.70000000
   N     70.79000000    55.20000000    14.18000000
   C     69.47000000    54.98000000    13.64000000
   C     68.79000000    53.74000000    14.20000000
   O     69.49000000    52.76000000    14.45000000
   C     69.43000000    54.91000000    12.11000000
   C     69.95000000    56.17000000    11.44000000
   O     70.24000000    53.84000000    11.68000000
   H     71.40000000    54.40000000    14.32000000
   H     68.90000000    55.89000000    13.80000000
   H     68.39000000    54.91000000    11.77000000
   H     71.00000000    53.78000000    12.26000000
   H     69.76000000    56.15000000    10.37000000
   H     69.35000000    57.00000000    11.82000000
   H     71.02000000    56.30000000    11.61000000
   N     67.48000000    53.83000000    14.45000000
   C     66.60000000    52.75000000    14.83000000
   C     65.84000000    52.32000000    13.59000000
   O     65.06000000    53.03000000    12.95000000
   C     65.59000000    53.26000000    15.85000000
   C     66.09000000    53.99000000    17.09000000
   C     64.54000000    52.21000000    16.23000000
   C     65.06000000    54.65000000    17.99000000
   H     67.04000000    54.71000000    14.23000000
   H     67.25000000    51.97000000    15.24000000
   H     65.00000000    53.94000000    15.23000000
   H     66.83000000    54.74000000    16.77000000
   H     66.66000000    53.29000000    17.69000000
   H     64.13000000    51.77000000    15.32000000
   H     65.10000000    51.55000000    16.89000000
   H     63.80000000    52.61000000    16.91000000
   H     64.54000000    55.48000000    17.50000000
   H     64.28000000    54.01000000    18.42000000
   H     65.46000000    54.99000000    18.95000000
   N     65.85000000    50.99000000    13.46000000
   C     65.08000000    50.20000000    12.52000000
   C     63.82000000    49.61000000    13.15000000
   O     63.66000000    49.48000000    14.37000000
   C     65.94000000    49.11000000    11.89000000
   C     67.14000000    49.61000000    11.09000000
   O     66.32000000    48.06000000    12.76000000
   H     66.52000000    50.43000000    13.97000000
   H     64.77000000    50.86000000    11.71000000
   H     65.30000000    48.51000000    11.25000000
   H     66.97000000    48.55000000    13.27000000
   H     67.62000000    50.52000000    11.46000000
   H     67.89000000    48.82000000    11.08000000
   H     66.82000000    49.79000000    10.06000000
   N     62.88000000    49.19000000    12.31000000
   C     61.59000000    48.66000000    12.69000000
   C     61.62000000    47.52000000    13.70000000
   O     60.72000000    47.33000000    14.51000000
   C     60.82000000    48.17000000    11.46000000
   C     59.32000000    48.24000000    11.73000000
   O     61.11000000    48.98000000    10.35000000
   H     62.88000000    49.40000000    11.32000000
   H     60.95000000    49.36000000    13.24000000
   H     61.19000000    47.16000000    11.30000000
   H     60.40000000    49.62000000    10.25000000
   H     59.11000000    47.49000000    12.50000000
   H     59.05000000    49.23000000    12.12000000
   H     58.75000000    48.15000000    10.81000000
   N     62.68000000    46.71000000    13.64000000
   C     62.93000000    45.52000000    14.43000000
   C     63.52000000    45.91000000    15.77000000
   O     63.13000000    45.35000000    16.79000000
   C     63.84000000    44.51000000    13.74000000
   C     64.15000000    43.29000000    14.61000000
   C     64.77000000    42.11000000    13.87000000
   C     64.65000000    40.77000000    14.59000000
   N     65.13000000    39.70000000    13.70000000
   H     63.32000000    46.85000000    12.87000000
   H     61.98000000    45.00000000    14.61000000
   H     64.80000000    44.95000000    13.50000000
   H     63.42000000    44.08000000    12.82000000
   H     63.24000000    42.96000000    15.11000000
   H     64.83000000    43.57000000    15.42000000
   H     65.72000000    42.29000000    13.38000000
   H     64.16000000    42.03000000    12.97000000
   H     63.64000000    40.49000000    14.89000000
   H     65.24000000    40.78000000    15.51000000
   H     65.29000000    38.90000000    14.30000000
   H     64.55000000    39.41000000    12.93000000
   H     66.07000000    39.87000000    13.38000000
   N     64.43000000    46.88000000    15.74000000
   C     65.06000000    47.58000000    16.85000000
   C     64.11000000    48.32000000    17.79000000
   O     64.29000000    48.37000000    19.00000000
   C     66.12000000    48.62000000    16.49000000
   C     67.29000000    48.01000000    15.73000000
   C     68.27000000    49.11000000    15.34000000
   O     68.29000000    49.63000000    14.20000000
   O     69.17000000    49.44000000    16.14000000
   H     64.61000000    47.22000000    14.81000000
   H     65.39000000    46.75000000    17.46000000
   H     66.47000000    49.08000000    17.42000000
   H     65.63000000    49.21000000    15.72000000
   H     66.85000000    47.39000000    14.95000000
   H     67.76000000    47.35000000    16.45000000
   N     63.00000000    48.72000000    17.18000000
   C     61.75000000    49.18000000    17.75000000
   H     60.96400000    48.45600000    17.53300000
   H     61.85900000    49.28400000    18.83000000
   H     61.48500000    50.14400000    17.31600000
   H     62.98000000    48.72000000    16.17000000
  Ca     70.88000000    50.47000000    14.49000000
   O     69.93000000    51.18000000    12.00000000
   H     69.63000000    51.19000000    11.09000000
   H     70.18000000    52.09000000    12.18000000
   O     70.91000000    48.15000000    13.28000000
   H     70.72000000    47.29000000    13.66000000
   H     70.51000000    48.12000000    12.41000000

Ca 1.70



