%chk=loop2.cluster165.chk
%nprocshared=48
%mem=10GB
%nosave
#b3lyp/svp scf=(tight,noincore) Test 
#IOP(5/87=12) Density=Current Pop=(MK,readradii) iop(6/33=2) iop(6/42=6)

loop2.cluster165 

   -2  1 
   C     82.26000000    86.48000000    42.32000000
   C     83.37000000    86.18000000    43.32000000
   O     83.61000000    87.05000000    44.15000000
   H     81.42300000    86.94900000    42.83700000
   H     82.63600000    87.15500000    41.55100000
   H     81.92600000    85.55100000    41.85700000
   N     83.99000000    85.01000000    43.45000000
   C     85.14000000    84.78000000    44.30000000
   C     84.72000000    84.46000000    45.73000000
   O     85.52000000    83.99000000    46.54000000
   C     85.95000000    83.69000000    43.60000000
   C     87.38000000    83.51000000    44.08000000
   O     88.03000000    82.48000000    43.77000000
   O     87.85000000    84.44000000    44.77000000
   H     83.72000000    84.26000000    42.84000000
   H     85.77000000    85.67000000    44.32000000
   H     85.89000000    83.80000000    42.52000000
   H     85.41000000    82.75000000    43.74000000
   N     83.46000000    84.76000000    46.04000000
   C     82.92000000    84.95000000    47.37000000
   C     81.40000000    85.04000000    47.35000000
   O     80.86000000    85.46000000    46.33000000
   C     83.55000000    86.25000000    47.88000000
   H     82.92000000    85.15000000    45.28000000
   H     83.20000000    84.14000000    48.05000000
   H     83.37000000    87.12000000    47.26000000
   H     83.19000000    86.54000000    48.87000000
   H     84.62000000    86.03000000    47.89000000
   N     80.66000000    84.79000000    48.43000000
   C     81.20000000    84.14000000    49.61000000
   C     81.44000000    82.64000000    49.55000000
   O     80.96000000    81.93000000    48.67000000
   C     80.27000000    84.39000000    50.79000000
   C     79.85000000    85.81000000    51.14000000
   O     80.48000000    86.53000000    51.95000000
   O     78.82000000    86.33000000    50.66000000
   H     79.69000000    85.08000000    48.49000000
   H     82.12000000    84.67000000    49.86000000
   H     80.78000000    84.11000000    51.72000000
   H     79.38000000    83.79000000    50.66000000
   N     82.09000000    82.03000000    50.55000000
   C     82.57000000    80.67000000    50.41000000
   C     83.50000000    80.40000000    49.23000000
   O     84.26000000    81.26000000    48.80000000
   H     82.51000000    82.57000000    51.30000000
   H     81.73000000    80.00000000    50.26000000
   H     83.09000000    80.30000000    51.29000000
   N     83.51000000    79.21000000    48.62000000
   C     82.81000000    77.98000000    48.96000000
   C     81.31000000    78.07000000    48.76000000
   O     80.61000000    77.14000000    49.15000000
   C     83.42000000    76.97000000    47.99000000
   C     84.93000000    76.88000000    48.14000000
   N     85.48000000    75.95000000    48.92000000
   O     85.72000000    77.74000000    47.73000000
   H     84.33000000    79.12000000    48.04000000
   H     83.02000000    77.67000000    49.98000000
   H     83.33000000    77.23000000    46.93000000
   H     82.92000000    76.02000000    48.15000000
   H     84.89000000    75.35000000    49.48000000
   H     86.46000000    75.99000000    49.12000000
   N     80.83000000    79.04000000    47.97000000
   C     79.44000000    79.10000000    47.59000000
   C     78.49000000    79.41000000    48.74000000
   O     77.41000000    78.83000000    48.66000000
   H     81.44000000    79.69000000    47.49000000
   H     79.17000000    78.21000000    47.02000000
   H     79.20000000    79.92000000    46.91000000
   N     78.89000000    80.31000000    49.64000000
   C     78.25000000    80.57000000    50.91000000
   C     77.32000000    81.77000000    50.94000000
   O     77.47000000    82.76000000    51.66000000
   C     79.25000000    80.58000000    52.07000000
   C     78.74000000    80.45000000    53.50000000
   O     80.15000000    79.50000000    51.92000000
   H     79.71000000    80.84000000    49.38000000
   H     77.59000000    79.73000000    51.10000000
   H     79.91000000    81.44000000    51.93000000
   H     80.55000000    79.39000000    52.78000000
   H     78.15000000    81.31000000    53.81000000
   H     78.18000000    79.52000000    53.58000000
   H     79.56000000    80.28000000    54.19000000
   N     76.40000000    81.84000000    49.97000000
   C     75.54000000    82.97000000    49.69000000
   C     74.19000000    83.04000000    50.40000000
   O     73.70000000    82.06000000    50.96000000
   C     75.33000000    83.09000000    48.18000000
   C     76.60000000    83.21000000    47.35000000
   C     74.45000000    81.99000000    47.59000000
   C     76.46000000    83.17000000    45.83000000
   H     76.23000000    80.96000000    49.50000000
   H     75.99000000    83.93000000    49.94000000
   H     74.80000000    84.02000000    48.04000000
   H     77.18000000    82.33000000    47.62000000
   H     77.16000000    84.11000000    47.63000000
   H     73.56000000    81.93000000    48.22000000
   H     74.19000000    82.27000000    46.57000000
   H     74.97000000    81.04000000    47.58000000
   H     76.23000000    82.13000000    45.59000000
   H     75.61000000    83.74000000    45.47000000
   H     77.45000000    83.50000000    45.51000000
   N     73.64000000    84.25000000    50.48000000
   C     72.33000000    84.57000000    51.01000000
   C     71.32000000    84.60000000    49.88000000
   O     71.76000000    84.79000000    48.75000000
   C     72.41000000    85.87000000    51.80000000
   C     72.94000000    87.11000000    51.09000000
   O     74.17000000    87.20000000    50.93000000
   O     72.16000000    87.99000000    50.66000000
   H     74.18000000    85.00000000    50.07000000
   H     72.09000000    83.78000000    51.72000000
   H     73.05000000    85.71000000    52.68000000
   H     71.39000000    86.01000000    52.15000000
   N     70.02000000    84.56000000    50.18000000
   C     68.90000000    84.57000000    49.26000000
   C     69.11000000    85.36000000    47.97000000
   O     69.35000000    84.81000000    46.90000000
   C     68.49000000    83.13000000    48.98000000
   C     67.12000000    82.96000000    48.35000000
   C     66.79000000    83.30000000    47.04000000
   C     66.09000000    82.82000000    49.29000000
   C     65.45000000    83.26000000    46.64000000
   C     64.76000000    82.72000000    48.87000000
   C     64.43000000    82.89000000    47.52000000
   H     69.87000000    84.54000000    51.18000000
   H     68.01000000    84.94000000    49.79000000
   H     68.59000000    82.48000000    49.85000000
   H     69.25000000    82.77000000    48.28000000
   H     67.51000000    83.47000000    46.26000000
   H     66.32000000    82.68000000    50.34000000
   H     65.15000000    83.48000000    45.63000000
   H     64.04000000    82.38000000    49.61000000
   H     63.43000000    82.69000000    47.17000000
   N     68.95000000    86.68000000    47.96000000
   C     69.06000000    87.49000000    46.76000000
   C     70.43000000    87.53000000    46.09000000
   O     70.62000000    88.15000000    45.05000000
   C     68.73000000    88.88000000    47.30000000
   C     67.83000000    88.77000000    48.53000000
   C     68.42000000    87.47000000    49.06000000
   H     68.30000000    87.22000000    46.04000000
   H     69.66000000    89.36000000    47.58000000
   H     68.19000000    89.40000000    46.51000000
   H     68.02000000    89.61000000    49.20000000
   H     66.78000000    88.55000000    48.35000000
   H     69.24000000    87.67000000    49.75000000
   H     67.53000000    86.97000000    49.45000000
   N     71.46000000    86.92000000    46.68000000
   C     72.82000000    86.85000000    46.21000000
   C     72.98000000    85.74000000    45.18000000
   O     73.77000000    85.83000000    44.24000000
   C     73.77000000    86.84000000    47.40000000
   C     75.24000000    86.96000000    47.01000000
   C     76.06000000    87.34000000    48.23000000
   O     76.23000000    86.43000000    49.07000000
   O     76.32000000    88.55000000    48.39000000
   H     71.26000000    86.20000000    47.36000000
   H     72.98000000    87.78000000    45.66000000
   H     73.65000000    85.92000000    47.99000000
   H     73.54000000    87.70000000    48.04000000
   H     75.48000000    87.74000000    46.28000000
   H     75.54000000    86.00000000    46.58000000
   N     72.18000000    84.67000000    45.27000000
   C     72.14000000    83.66000000    44.24000000
   H     71.97200000    84.13400000    43.27300000
   H     73.08800000    83.12200000    44.22100000
   H     71.32900000    82.96100000    44.44700000
   H     71.61000000    84.54000000    46.09000000
  Ca     76.57000000    87.16000000    51.44000000
   O     77.32000000    89.76000000    50.65000000
   H     77.01000000    90.61000000    50.97000000
   H     77.18000000    89.79000000    49.71000000
   O     76.16000000    84.89000000    52.73000000
   H     75.63000000    84.52000000    53.43000000
   H     76.78000000    84.19000000    52.51000000
   O     78.21000000    87.03000000    53.52000000
   H     79.09000000    86.82000000    53.20000000
   H     78.25000000    86.83000000    54.46000000

Ca 1.70



