%chk=loop3.cluster63.chk
%nprocshared=48
%mem=10GB
%nosave
#b3lyp/svp scf=(tight,noincore) Test 
#IOP(5/87=12) Density=Current Pop=(MK,readradii) iop(6/33=2) iop(6/42=6)

loop3.cluster63 

   0  1 
   C    109.23000000    44.64000000    14.35000000
   C    110.51000000    43.88000000    14.05000000
   O    110.50000000    42.72000000    13.64000000
   H    108.43300000    43.93200000    14.58000000
   H    109.38900000    45.29700000    15.20500000
   H    108.94800000    45.23500000    13.48100000
   N    111.64000000    44.60000000    14.11000000
   C    112.97000000    44.14000000    13.77000000
   C    113.68000000    43.23000000    14.76000000
   O    113.13000000    42.80000000    15.77000000
   C    113.76000000    45.38000000    13.38000000
   C    113.78000000    46.58000000    14.32000000
   O    112.94000000    47.49000000    14.19000000
   O    114.62000000    46.46000000    15.23000000
   H    111.48000000    45.54000000    14.44000000
   H    112.95000000    43.66000000    12.79000000
   H    113.47000000    45.76000000    12.40000000
   H    114.78000000    45.03000000    13.19000000
   N    114.91000000    42.87000000    14.38000000
   C    115.86000000    42.22000000    15.26000000
   C    116.69000000    41.25000000    14.43000000
   O    117.50000000    41.72000000    13.63000000
   C    116.68000000    43.31000000    15.95000000
   C    117.77000000    42.80000000    16.88000000
   C    118.48000000    44.06000000    17.34000000
   C    119.62000000    43.92000000    18.35000000
   N    120.08000000    45.21000000    18.88000000
   H    115.27000000    43.40000000    13.59000000
   H    115.37000000    41.60000000    16.01000000
   H    116.05000000    43.99000000    16.52000000
   H    117.10000000    43.98000000    15.20000000
   H    118.48000000    42.28000000    16.23000000
   H    117.38000000    42.21000000    17.72000000
   H    117.79000000    44.82000000    17.72000000
   H    118.99000000    44.39000000    16.43000000
   H    120.43000000    43.34000000    17.93000000
   H    119.25000000    43.36000000    19.21000000
   H    120.79000000    45.12000000    19.59000000
   H    120.52000000    45.73000000    18.14000000
   H    119.24000000    45.69000000    19.19000000
   N    116.44000000    39.95000000    14.62000000
   C    116.83000000    38.86000000    13.75000000
   C    116.24000000    38.88000000    12.35000000
   O    116.81000000    38.32000000    11.42000000
   C    116.38000000    37.60000000    14.48000000
   C    114.91000000    37.38000000    14.83000000
   O    114.15000000    38.37000000    14.74000000
   O    114.53000000    36.29000000    15.30000000
   H    115.96000000    39.65000000    15.46000000
   H    117.90000000    38.98000000    13.57000000
   H    116.92000000    37.52000000    15.43000000
   H    116.80000000    36.79000000    13.89000000
   N    115.10000000    39.56000000    12.16000000
   C    114.54000000    39.75000000    10.84000000
   C    113.26000000    40.56000000    10.83000000
   O    112.63000000    40.71000000    11.87000000
   H    114.58000000    39.78000000    12.99000000
   H    114.46000000    38.79000000    10.33000000
   H    115.24000000    40.35000000    10.26000000
   N    112.80000000    41.17000000     9.73000000
   C    113.49000000    41.15000000     8.45000000
   C    112.41000000    40.90000000     7.41000000
   O    111.42000000    41.62000000     7.49000000
   C    114.15000000    42.49000000     8.12000000
   C    114.78000000    42.54000000     6.74000000
   N    114.78000000    43.72000000     6.11000000
   O    115.23000000    41.53000000     6.21000000
   H    112.07000000    41.86000000     9.87000000
   H    114.22000000    40.34000000     8.39000000
   H    114.83000000    42.85000000     8.90000000
   H    113.41000000    43.28000000     8.18000000
   H    114.38000000    44.54000000     6.53000000
   H    115.17000000    43.79000000     5.18000000
   N    112.50000000    40.04000000     6.39000000
   C    113.23000000    38.78000000     6.48000000
   C    112.49000000    37.65000000     7.18000000
   O    112.26000000    37.79000000     8.38000000
   H    111.74000000    40.01000000     5.74000000
   H    114.17000000    38.90000000     7.02000000
   H    113.45000000    38.43000000     5.47000000
   N    112.13000000    36.58000000     6.48000000
   C    111.34000000    35.49000000     7.02000000
   C    111.81000000    34.06000000     6.76000000
   O    111.82000000    33.60000000     5.62000000
   C    109.89000000    35.59000000     6.57000000
   C    109.09000000    36.82000000     6.93000000
   C    108.22000000    37.00000000     8.01000000
   C    109.35000000    37.87000000     6.04000000
   C    107.68000000    38.28000000     8.19000000
   C    108.84000000    39.15000000     6.27000000
   C    108.02000000    39.39000000     7.39000000
   O    107.50000000    40.62000000     7.62000000
   H    112.44000000    36.51000000     5.52000000
   H    111.29000000    35.69000000     8.09000000
   H    109.35000000    34.78000000     7.06000000
   H    109.82000000    35.53000000     5.48000000
   H    107.91000000    36.21000000     8.67000000
   H    109.91000000    37.71000000     5.13000000
   H    106.95000000    38.36000000     8.99000000
   H    109.07000000    39.98000000     5.61000000
   H    108.02000000    41.21000000     7.07000000
   N    112.06000000    33.27000000     7.80000000
   C    112.28000000    31.84000000     7.74000000
   C    111.06000000    30.95000000     7.52000000
   O    111.17000000    29.76000000     7.25000000
   C    113.11000000    31.45000000     8.95000000
   C    112.38000000    31.76000000    10.25000000
   C    113.73000000    30.05000000     8.92000000
   C    113.16000000    31.62000000    11.55000000
   H    112.27000000    33.69000000     8.70000000
   H    112.94000000    31.63000000     6.89000000
   H    113.98000000    32.11000000     8.91000000
   H    111.51000000    31.10000000    10.28000000
   H    112.04000000    32.80000000    10.21000000
   H    114.44000000    30.07000000     8.10000000
   H    114.33000000    29.95000000     9.83000000
   H    113.00000000    29.25000000     8.78000000
   H    114.05000000    32.24000000    11.66000000
   H    112.47000000    32.00000000    12.30000000
   H    113.53000000    30.61000000    11.77000000
   N    109.88000000    31.48000000     7.84000000
   C    108.61000000    30.94000000     7.40000000
   C    107.89000000    30.01000000     8.36000000
   O    106.78000000    29.60000000     8.04000000
   C    107.62000000    32.06000000     7.09000000
   O    107.71000000    33.14000000     8.00000000
   H    109.82000000    32.43000000     8.19000000
   H    108.70000000    30.39000000     6.46000000
   H    106.57000000    31.78000000     7.07000000
   H    107.90000000    32.42000000     6.11000000
   H    106.88000000    33.57000000     7.81000000
   N    108.45000000    29.83000000     9.56000000
   C    107.82000000    29.19000000    10.70000000
   C    107.92000000    30.11000000    11.91000000
   O    108.96000000    30.71000000    12.16000000
   C    108.56000000    27.87000000    10.86000000
   H    109.26000000    30.41000000     9.75000000
   H    106.76000000    29.04000000    10.50000000
   H    108.62000000    27.43000000     9.87000000
   H    109.57000000    28.01000000    11.26000000
   H    107.99000000    27.23000000    11.54000000
   N    106.82000000    30.29000000    12.64000000
   C    106.75000000    31.10000000    13.84000000
   C    107.27000000    32.53000000    13.70000000
   O    107.98000000    33.09000000    14.52000000
   C    107.34000000    30.28000000    14.98000000
   H    106.00000000    29.82000000    12.29000000
   H    105.68000000    31.17000000    14.02000000
   H    106.61000000    29.54000000    15.31000000
   H    108.25000000    29.73000000    14.71000000
   H    107.59000000    30.89000000    15.84000000
   N    107.02000000    33.21000000    12.57000000
   C    107.26000000    34.61000000    12.31000000
   C    106.04000000    35.52000000    12.34000000
   O    106.12000000    36.65000000    12.83000000
   C    107.92000000    34.68000000    10.94000000
   C    109.44000000    34.55000000    10.89000000
   C    110.26000000    35.73000000    11.38000000
   O    109.72000000    36.82000000    11.68000000
   O    111.49000000    35.52000000    11.38000000
   H    106.44000000    32.79000000    11.86000000
   H    108.00000000    35.07000000    12.98000000
   H    107.59000000    35.67000000    10.61000000
   H    107.44000000    33.96000000    10.28000000
   H    109.84000000    34.38000000     9.89000000
   H    109.66000000    33.64000000    11.45000000
   N    104.88000000    34.96000000    11.98000000
   C    103.58000000    35.58000000    12.17000000
   H    102.84900000    34.81600000    12.43400000
   H    103.64100000    36.31600000    12.97200000
   H    103.27300000    36.07200000    11.24700000
   H    104.87000000    33.96000000    11.91000000
  Ca    110.48900000    39.67000000    12.90000000
   O    108.95900000    40.53000000    15.05000000
   H    109.28900000    41.19000000    15.66000000
   H    108.83900000    39.75000000    15.58000000
   O    110.50900000    38.80000000    10.07000000
   H    109.91900000    38.10000000    10.36000000
   H    111.19900000    38.34000000     9.59000000
   O    107.97900000    38.76000000    12.55000000
   H    108.01900000    37.85000000    12.26000000
   H    107.07900000    38.88000000    12.86000000
   O    109.51900000    41.27000000    11.04000000
   H    109.55900000    40.85000000    10.18000000
   H    108.98900000    42.06000000    10.89000000
   O    109.99900000    37.36000000    14.54000000
   H    109.13900000    37.23000000    14.94000000
   H    110.23900000    36.49000000    14.20000000
   O    112.47900000    38.02000000    12.47000000
   H    113.13900000    37.58000000    13.02000000
   H    112.01900000    37.30000000    12.04000000
   O    112.10900000    40.09000000    14.87000000
   H    112.81900000    39.45000000    15.00000000
   H    112.34900000    40.82000000    15.44000000

Ca 1.70



