%chk=loop2.cluster186.chk
%nprocshared=48
%mem=10GB
%nosave
#b3lyp/svp scf=(tight,noincore) Test 
#IOP(5/87=12) Density=Current Pop=(MK,readradii) iop(6/33=2) iop(6/42=6)

loop2.cluster186 

   -2  1 
   C     69.83000000    97.64000000    92.10000000
   C     71.27000000    97.37000000    92.53000000
   O     71.52000000    96.72000000    93.55000000
   H     69.22000000    97.83900000    92.98100000
   H     69.80400000    98.50500000    91.43700000
   H     69.43700000    96.76900000    91.57600000
   N     72.24000000    97.99000000    91.86000000
   C     73.62000000    97.70000000    92.19000000
   C     73.98000000    98.20000000    93.58000000
   O     74.68000000    97.46000000    94.27000000
   C     74.55000000    98.27000000    91.13000000
   C     76.04000000    97.98000000    91.24000000
   O     76.51000000    96.84000000    91.01000000
   O     76.68000000    98.95000000    91.68000000
   H     71.98000000    98.48000000    91.01000000
   H     73.83000000    96.63000000    92.10000000
   H     74.46000000    99.36000000    91.11000000
   H     74.18000000    97.88000000    90.19000000
   N     73.57000000    99.40000000    94.01000000
   C     73.69000000    99.88000000    95.38000000
   C     73.33000000    98.96000000    96.54000000
   O     73.70000000    99.20000000    97.69000000
   C     75.05000000   100.53000000    95.60000000
   H     73.23000000   100.04000000    93.31000000
   H     72.96000000   100.68000000    95.48000000
   H     75.90000000    99.85000000    95.53000000
   H     75.22000000   101.39000000    94.95000000
   H     75.16000000   100.84000000    96.64000000
   N     72.57000000    97.91000000    96.25000000
   C     71.85000000    97.13000000    97.24000000
   C     72.74000000    96.52000000    98.32000000
   O     72.21000000    96.42000000    99.43000000
   C     70.71000000    97.95000000    97.83000000
   C     69.98000000    98.83000000    96.81000000
   O     70.39000000   100.01000000    96.75000000
   O     68.96000000    98.44000000    96.20000000
   H     72.26000000    97.80000000    95.30000000
   H     71.42000000    96.28000000    96.72000000
   H     71.09000000    98.60000000    98.62000000
   H     69.93000000    97.27000000    98.17000000
   N     73.98000000    96.13000000    98.02000000
   C     74.83000000    95.31000000    98.85000000
   C     74.45000000    93.83000000    98.91000000
   O     73.55000000    93.42000000    98.19000000
   H     74.30000000    96.29000000    97.08000000
   H     74.91000000    95.74000000    99.84000000
   H     75.84000000    95.35000000    98.43000000
   N     75.21000000    93.06000000    99.68000000
   C     75.19000000    91.61000000    99.84000000
   C     75.33000000    90.81000000    98.55000000
   O     74.82000000    89.70000000    98.45000000
   C     73.90000000    91.21000000   100.55000000
   C     73.58000000    91.98000000   101.82000000
   N     74.35000000    91.71000000   102.88000000
   O     72.73000000    92.87000000   101.81000000
   H     75.94000000    93.56000000   100.17000000
   H     76.07000000    91.35000000   100.41000000
   H     74.04000000    90.19000000   100.88000000
   H     73.02000000    91.28000000    99.91000000
   H     75.14000000    91.08000000   102.81000000
   H     74.22000000    92.24000000   103.73000000
   N     76.18000000    91.36000000    97.69000000
   C     76.55000000    90.80000000    96.40000000
   C     75.46000000    91.05000000    95.38000000
   O     75.74000000    90.76000000    94.21000000
   H     76.53000000    92.29000000    97.90000000
   H     76.79000000    89.74000000    96.47000000
   H     77.43000000    91.35000000    96.07000000
   N     74.30000000    91.61000000    95.73000000
   C     73.30000000    92.02000000    94.76000000
   C     71.97000000    91.32000000    95.01000000
   O     71.68000000    90.83000000    96.10000000
   C     73.15000000    93.52000000    94.51000000
   C     74.45000000    94.16000000    94.05000000
   O     72.11000000    93.87000000    93.63000000
   H     74.21000000    91.98000000    96.66000000
   H     73.65000000    91.70000000    93.77000000
   H     72.87000000    93.98000000    95.46000000
   H     72.11000000    94.83000000    93.57000000
   H     74.34000000    95.24000000    93.94000000
   H     75.30000000    93.95000000    94.69000000
   H     74.68000000    93.75000000    93.07000000
   N     71.10000000    91.19000000    94.01000000
   C     69.77000000    90.63000000    94.10000000
   C     68.83000000    91.42000000    94.98000000
   O     68.98000000    92.64000000    95.11000000
   C     69.16000000    90.45000000    92.71000000
   C     69.25000000    91.70000000    91.83000000
   C     69.70000000    89.25000000    91.93000000
   C     68.33000000    91.67000000    90.61000000
   H     71.43000000    91.58000000    93.14000000
   H     69.98000000    89.61000000    94.43000000
   H     68.09000000    90.27000000    92.82000000
   H     70.26000000    91.83000000    91.46000000
   H     68.86000000    92.54000000    92.40000000
   H     69.47000000    88.34000000    92.49000000
   H     69.22000000    89.12000000    90.96000000
   H     70.77000000    89.36000000    91.73000000
   H     68.67000000    90.90000000    89.91000000
   H     67.28000000    91.57000000    90.87000000
   H     68.43000000    92.55000000    89.99000000
   N     67.91000000    90.77000000    95.71000000
   C     67.05000000    91.35000000    96.71000000
   C     67.61000000    91.00000000    98.08000000
   O     67.50000000    91.84000000    98.98000000
   C     65.61000000    90.87000000    96.51000000
   C     64.59000000    91.63000000    97.35000000
   O     64.36000000    92.84000000    97.14000000
   O     63.92000000    91.05000000    98.23000000
   H     67.98000000    89.76000000    95.70000000
   H     67.10000000    92.44000000    96.61000000
   H     65.56000000    89.85000000    96.87000000
   H     65.36000000    90.89000000    95.45000000
   N     68.15000000    89.80000000    98.28000000
   C     68.80000000    89.58000000    99.55000000
   C     68.69000000    88.11000000    99.90000000
   O     68.07000000    87.87000000   100.94000000
   C     70.29000000    89.93000000    99.54000000
   C     71.22000000    89.26000000   100.53000000
   C     72.19000000    88.33000000   100.16000000
   C     71.15000000    89.65000000   101.87000000
   C     73.03000000    87.72000000   101.10000000
   C     71.99000000    89.08000000   102.83000000
   C     72.88000000    88.07000000   102.45000000
   H     68.31000000    89.14000000    97.53000000
   H     68.28000000    90.09000000   100.37000000
   H     70.46000000    91.00000000    99.63000000
   H     70.75000000    89.71000000    98.58000000
   H     72.33000000    88.11000000    99.11000000
   H     70.49000000    90.47000000   102.11000000
   H     73.67000000    86.92000000   100.75000000
   H     71.84000000    89.30000000   103.88000000
   H     73.52000000    87.60000000   103.18000000
   N     69.05000000    87.13000000    99.06000000
   C     69.64000000    87.20000000    97.74000000
   C     68.67000000    87.07000000    96.58000000
   O     68.95000000    87.43000000    95.44000000
   C     70.59000000    86.00000000    97.66000000
   C     69.84000000    84.95000000    98.47000000
   C     69.29000000    85.81000000    99.61000000
   H     70.21000000    88.12000000    97.61000000
   H     70.76000000    85.66000000    96.64000000
   H     71.50000000    86.25000000    98.21000000
   H     68.93000000    84.69000000    97.93000000
   H     70.46000000    84.09000000    98.71000000
   H     68.33000000    85.37000000    99.89000000
   H     69.99000000    85.82000000   100.44000000
   N     67.43000000    86.64000000    96.82000000
   C     66.59000000    85.98000000    95.84000000
   C     66.04000000    86.93000000    94.79000000
   O     65.51000000    87.98000000    95.16000000
   C     65.36000000    85.28000000    96.41000000
   C     65.72000000    84.28000000    97.51000000
   C     64.54000000    83.41000000    97.91000000
   O     64.53000000    82.20000000    97.62000000
   O     63.54000000    83.85000000    98.53000000
   H     67.20000000    86.42000000    97.78000000
   H     67.16000000    85.17000000    95.38000000
   H     64.85000000    84.74000000    95.61000000
   H     64.62000000    86.00000000    96.76000000
   H     66.00000000    84.81000000    98.42000000
   H     66.55000000    83.60000000    97.29000000
   N     66.07000000    86.56000000    93.51000000
   C     65.44000000    87.21000000    92.38000000
   H     64.53800000    87.72300000    92.71300000
   H     66.12900000    87.93400000    91.94600000
   H     65.17700000    86.46300000    91.63100000
   H     66.53000000    85.68000000    93.33000000
  Ca     66.97000000   100.02900000    95.71000000
   O     66.51000000   101.29900000    98.14000000
   H     66.99000000   102.10900000    98.31000000
   H     66.37000000   100.91900000    99.01000000
   O     64.20000000   100.25900000    95.01000000
   H     63.81000000   100.30900000    94.14000000
   H     63.66000000    99.62900000    95.48000000
   O     68.24000000   102.29900000    95.62000000
   H     68.60000000   102.89900000    94.97000000
   H     68.31000000   102.77900000    96.45000000
   O     66.33000000    98.26000000    97.82000000
   H     67.23000000    98.18000000    98.13000000
   H     66.02000000    97.35000000    97.77000000
   O     66.28000000    97.79000000    94.51000000
   H     66.66000000    96.92000000    94.40000000
   H     65.35000000    97.67000000    94.33000000

Ca 1.70



