%chk=loop1.cluster57.chk
%nprocshared=48
%mem=10GB
%nosave
#b3lyp/svp scf=(tight,noincore) Test 
#IOP(5/87=12) Density=Current Pop=(MK,readradii) iop(6/33=2) iop(6/42=6)

loop1.cluster57 

   0  1 
   C     69.63000000    51.02000000    27.57000000
   C     70.65000000    50.93000000    26.44000000
   O     70.86000000    49.85000000    25.89000000
   H     68.69000000    50.57200000    27.24700000
   H     70.00600000    50.48600000    28.44300000
   H     69.46300000    52.06600000    27.82700000
   N     71.45000000    51.98000000    26.24000000
   C     72.41000000    51.94000000    25.16000000
   C     73.70000000    51.29000000    25.65000000
   O     74.55000000    51.92000000    26.27000000
   C     72.70000000    53.31000000    24.57000000
   C     73.78000000    53.29000000    23.50000000
   O     74.27000000    54.41000000    23.26000000
   O     74.10000000    52.21000000    22.95000000
   H     71.42000000    52.88000000    26.71000000
   H     71.98000000    51.31000000    24.38000000
   H     72.97000000    54.04000000    25.34000000
   H     71.89000000    53.74000000    23.99000000
   N     73.83000000    49.98000000    25.41000000
   C     75.01000000    49.24000000    25.81000000
   C     76.12000000    49.22000000    24.76000000
   O     77.15000000    48.61000000    25.03000000
   C     74.59000000    47.88000000    26.34000000
   C     73.75000000    48.04000000    27.60000000
   C     73.22000000    46.69000000    28.07000000
   C     72.51000000    46.70000000    29.42000000
   N     71.14000000    47.24000000    29.47000000
   H     73.08000000    49.49000000    24.94000000
   H     75.55000000    49.70000000    26.64000000
   H     75.47000000    47.30000000    26.64000000
   H     74.04000000    47.26000000    25.63000000
   H     72.94000000    48.76000000    27.51000000
   H     74.43000000    48.34000000    28.40000000
   H     74.04000000    45.99000000    28.22000000
   H     72.64000000    46.27000000    27.24000000
   H     73.04000000    47.20000000    30.22000000
   H     72.42000000    45.69000000    29.82000000
   H     70.52000000    46.89000000    28.75000000
   H     70.65000000    47.01000000    30.31000000
   H     71.19000000    48.25000000    29.35000000
   N     75.93000000    49.81000000    23.58000000
   C     77.02000000    50.11000000    22.67000000
   C     77.81000000    51.41000000    22.73000000
   O     78.98000000    51.37000000    22.34000000
   C     76.44000000    50.23000000    21.26000000
   C     75.43000000    49.15000000    20.91000000
   O     75.69000000    47.93000000    21.01000000
   O     74.41000000    49.59000000    20.35000000
   H     75.10000000    50.39000000    23.56000000
   H     77.71000000    49.27000000    22.71000000
   H     77.20000000    50.26000000    20.49000000
   H     75.89000000    51.16000000    21.15000000
   N     77.19000000    52.50000000    23.18000000
   C     77.66000000    53.87000000    23.19000000
   C     77.62000000    54.53000000    21.82000000
   O     78.52000000    55.16000000    21.27000000
   H     76.28000000    52.40000000    23.61000000
   H     78.69000000    53.91000000    23.52000000
   H     76.97000000    54.41000000    23.85000000
   N     76.48000000    54.36000000    21.14000000
   C     76.29000000    54.93000000    19.82000000
   C     75.46000000    56.21000000    19.95000000
   O     75.29000000    56.97000000    19.00000000
   C     75.71000000    53.95000000    18.81000000
   C     74.46000000    53.22000000    19.29000000
   O     73.81000000    53.55000000    20.30000000
   O     74.22000000    52.09000000    18.81000000
   H     75.67000000    53.92000000    21.54000000
   H     77.24000000    55.16000000    19.33000000
   H     76.49000000    53.24000000    18.52000000
   H     75.37000000    54.60000000    18.00000000
   N     74.77000000    56.40000000    21.07000000
   C     73.70000000    57.37000000    21.22000000
   C     72.31000000    57.00000000    20.73000000
   O     71.56000000    57.88000000    20.32000000
   H     74.91000000    55.72000000    21.81000000
   H     73.95000000    58.36000000    20.85000000
   H     73.48000000    57.48000000    22.28000000
   N     71.94000000    55.73000000    20.54000000
   C     70.66000000    55.20000000    20.13000000
   C     70.17000000    53.97000000    20.89000000
   O     71.00000000    53.24000000    21.42000000
   C     70.57000000    54.97000000    18.62000000
   C     70.12000000    56.25000000    17.91000000
   O     71.81000000    54.50000000    18.13000000
   H     72.64000000    55.05000000    20.81000000
   H     69.96000000    56.00000000    20.38000000
   H     69.77000000    54.26000000    18.44000000
   H     72.29000000    55.30000000    17.91000000
   H     70.81000000    57.09000000    18.04000000
   H     70.05000000    56.05000000    16.84000000
   H     69.17000000    56.49000000    18.39000000
   N     68.84000000    53.89000000    20.96000000
   C     68.19000000    52.76000000    21.59000000
   C     67.27000000    52.02000000    20.63000000
   O     66.42000000    52.56000000    19.93000000
   C     67.44000000    53.09000000    22.88000000
   C     68.38000000    53.69000000    23.91000000
   C     66.73000000    51.88000000    23.49000000
   C     67.59000000    54.46000000    24.97000000
   H     68.24000000    54.66000000    20.69000000
   H     68.95000000    52.03000000    21.88000000
   H     66.64000000    53.80000000    22.66000000
   H     68.95000000    54.49000000    23.44000000
   H     69.17000000    53.05000000    24.32000000
   H     66.18000000    52.15000000    24.39000000
   H     66.04000000    51.50000000    22.73000000
   H     67.45000000    51.13000000    23.82000000
   H     66.83000000    53.90000000    25.51000000
   H     68.32000000    54.79000000    25.70000000
   H     67.12000000    55.29000000    24.44000000
   N     67.45000000    50.70000000    20.50000000
   C     66.89000000    49.76000000    19.55000000
   C     65.66000000    49.00000000    20.04000000
   O     65.46000000    48.90000000    21.25000000
   C     67.88000000    48.82000000    18.88000000
   C     69.16000000    49.55000000    18.48000000
   O     68.40000000    47.75000000    19.64000000
   H     67.94000000    50.21000000    21.23000000
   H     66.53000000    50.34000000    18.70000000
   H     67.39000000    48.29000000    18.06000000
   H     69.30000000    47.65000000    19.32000000
   H     69.64000000    49.74000000    19.44000000
   H     69.71000000    48.90000000    17.80000000
   H     68.99000000    50.44000000    17.87000000
   N     64.87000000    48.30000000    19.23000000
   C     63.92000000    47.29000000    19.64000000
   C     64.55000000    46.07000000    20.29000000
   O     63.85000000    45.43000000    21.08000000
   C     62.87000000    46.88000000    18.61000000
   C     61.91000000    48.03000000    18.32000000
   O     63.55000000    46.43000000    17.46000000
   H     65.19000000    48.26000000    18.27000000
   H     63.38000000    47.80000000    20.44000000
   H     62.32000000    46.06000000    19.08000000
   H     63.06000000    46.59000000    16.64000000
   H     61.09000000    47.73000000    17.68000000
   H     61.53000000    48.47000000    19.24000000
   H     62.39000000    48.75000000    17.66000000
   N     65.82000000    45.73000000    20.05000000
   C     66.61000000    44.77000000    20.79000000
   C     66.97000000    45.31000000    22.16000000
   O     66.82000000    44.64000000    23.18000000
   C     67.78000000    44.13000000    20.04000000
   C     68.48000000    43.01000000    20.80000000
   C     69.71000000    42.47000000    20.06000000
   C     70.24000000    41.41000000    21.02000000
   N     71.40000000    40.64000000    20.53000000
   H     66.20000000    46.19000000    19.24000000
   H     66.05000000    43.85000000    20.94000000
   H     68.50000000    44.90000000    19.75000000
   H     67.36000000    43.71000000    19.12000000
   H     67.72000000    42.30000000    21.12000000
   H     68.83000000    43.32000000    21.78000000
   H     70.42000000    43.29000000    19.98000000
   H     69.39000000    41.97000000    19.15000000
   H     69.41000000    40.70000000    21.06000000
   H     70.51000000    41.84000000    21.98000000
   H     71.20000000    40.14000000    19.68000000
   H     72.23000000    41.18000000    20.34000000
   H     71.66000000    39.89000000    21.16000000
   N     67.60000000    46.49000000    22.20000000
   C     68.11000000    47.06000000    23.43000000
   C     66.97000000    47.26000000    24.42000000
   O     67.25000000    47.19000000    25.61000000
   C     68.91000000    48.32000000    23.12000000
   C     70.29000000    47.96000000    22.58000000
   C     71.15000000    49.19000000    22.30000000
   O     70.70000000    50.03000000    21.50000000
   O     72.30000000    49.39000000    22.76000000
   H     67.68000000    46.98000000    21.32000000
   H     68.80000000    46.39000000    23.96000000
   H     69.02000000    48.82000000    24.08000000
   H     68.34000000    48.93000000    22.43000000
   H     70.21000000    47.27000000    21.74000000
   H     70.69000000    47.38000000    23.41000000
   N     65.73000000    47.49000000    23.99000000
   C     64.53000000    47.60000000    24.80000000
   H     63.70100000    47.11200000    24.28800000
   H     64.69600000    47.11800000    25.76300000
   H     64.29100000    48.65200000    24.95600000
   H     65.63000000    47.68000000    23.00000000
  Ca     72.76000000    51.31000000    20.87000000
   O     71.40000000    51.65000000    18.52000000
   H     71.10000000    51.03000000    17.86000000
   H     71.59000000    52.45000000    18.04000000

Ca 1.70



