%chk=loop3.cluster95.chk
%nprocshared=48
%mem=10GB
%nosave
#b3lyp/svp scf=(tight,noincore) Test 
#IOP(5/87=12) Density=Current Pop=(MK,readradii) iop(6/33=2) iop(6/42=6)

loop3.cluster95 

   0  1 
   C     60.44000000    66.19000000    73.44000000
   C     61.46000000    65.06000000    73.37000000
   O     62.46000000    65.02000000    74.08000000
   H     59.53300000    65.83000000    73.92600000
   H     60.85400000    67.01900000    74.01300000
   H     60.20200000    66.52800000    72.43200000
   N     61.30000000    64.19000000    72.38000000
   C     62.27000000    63.24000000    71.86000000
   C     61.55000000    62.09000000    71.16000000
   O     60.78000000    62.31000000    70.23000000
   C     63.25000000    63.95000000    70.93000000
   C     64.43000000    63.14000000    70.42000000
   O     64.78000000    63.29000000    69.23000000
   O     64.98000000    62.34000000    71.21000000
   H     60.37000000    64.10000000    72.00000000
   H     62.83000000    62.85000000    72.71000000
   H     63.72000000    64.72000000    71.55000000
   H     62.78000000    64.43000000    70.07000000
   N     61.89000000    60.85000000    71.51000000
   C     61.59000000    59.60000000    70.84000000
   C     61.74000000    59.76000000    69.33000000
   O     62.87000000    60.16000000    69.04000000
   C     60.28000000    59.05000000    71.38000000
   C     60.50000000    58.58000000    72.81000000
   C     59.28000000    58.00000000    73.52000000
   C     59.11000000    56.51000000    73.22000000
   N     60.28000000    55.64000000    73.46000000
   H     62.47000000    60.79000000    72.34000000
   H     62.31000000    58.82000000    71.07000000
   H     59.99000000    58.12000000    70.89000000
   H     59.49000000    59.80000000    71.24000000
   H     60.91000000    59.40000000    73.40000000
   H     61.27000000    57.81000000    72.78000000
   H     58.40000000    58.50000000    73.13000000
   H     59.36000000    58.08000000    74.60000000
   H     58.76000000    56.41000000    72.19000000
   H     58.35000000    56.19000000    73.93000000
   H     60.54000000    55.59000000    74.43000000
   H     60.02000000    54.67000000    73.33000000
   H     61.15000000    55.80000000    72.98000000
   N     60.74000000    59.38000000    68.53000000
   C     60.82000000    59.36000000    67.08000000
   C     59.60000000    59.90000000    66.35000000
   O     58.52000000    60.10000000    66.91000000
   C     61.23000000    57.97000000    66.60000000
   C     60.18000000    56.91000000    66.89000000
   O     59.86000000    56.65000000    68.07000000
   O     59.55000000    56.32000000    65.99000000
   H     59.91000000    59.11000000    69.02000000
   H     61.67000000    60.00000000    66.84000000
   H     62.17000000    57.73000000    67.08000000
   H     61.49000000    58.00000000    65.54000000
   N     59.70000000    60.09000000    65.03000000
   C     58.63000000    60.33000000    64.09000000
   C     57.96000000    59.12000000    63.44000000
   O     58.68000000    58.20000000    63.07000000
   H     60.59000000    59.85000000    64.63000000
   H     59.00000000    61.00000000    63.31000000
   H     57.82000000    60.87000000    64.58000000
   N     56.67000000    59.19000000    63.09000000
   C     55.99000000    58.11000000    62.40000000
   C     55.34000000    58.54000000    61.10000000
   O     54.32000000    57.97000000    60.70000000
   C     55.13000000    57.36000000    63.42000000
   C     55.93000000    57.17000000    64.70000000
   N     55.84000000    58.02000000    65.73000000
   O     56.67000000    56.20000000    64.78000000
   H     56.20000000    59.99000000    63.48000000
   H     56.69000000    57.28000000    62.28000000
   H     54.95000000    56.36000000    63.02000000
   H     54.20000000    57.88000000    63.60000000
   H     55.12000000    58.73000000    65.76000000
   H     56.43000000    57.93000000    66.54000000
   N     55.76000000    59.64000000    60.47000000
   C     55.10000000    60.22000000    59.32000000
   C     53.64000000    60.64000000    59.50000000
   O     53.28000000    61.39000000    60.40000000
   H     56.47000000    60.23000000    60.88000000
   H     55.27000000    59.61000000    58.43000000
   H     55.54000000    61.19000000    59.12000000
   N     52.81000000    60.06000000    58.63000000
   C     51.37000000    60.10000000    58.69000000
   C     50.68000000    59.56000000    59.94000000
   O     49.48000000    59.75000000    60.14000000
   C     50.84000000    61.44000000    58.19000000
   C     51.35000000    61.82000000    56.82000000
   C     50.68000000    61.35000000    55.69000000
   C     52.47000000    62.64000000    56.61000000
   C     51.19000000    61.60000000    54.41000000
   C     53.06000000    62.83000000    55.36000000
   C     52.38000000    62.33000000    54.22000000
   O     52.93000000    62.41000000    52.98000000
   H     53.23000000    59.59000000    57.84000000
   H     50.99000000    59.36000000    57.98000000
   H     51.17000000    62.27000000    58.81000000
   H     49.76000000    61.42000000    58.37000000
   H     49.85000000    60.68000000    55.84000000
   H     52.96000000    63.11000000    57.46000000
   H     50.65000000    61.22000000    53.55000000
   H     53.93000000    63.45000000    55.22000000
   H     53.70000000    62.98000000    52.97000000
   N     51.44000000    58.91000000    60.82000000
   C     51.12000000    58.34000000    62.11000000
   C     50.32000000    57.05000000    62.10000000
   O     50.69000000    56.09000000    62.78000000
   C     50.43000000    59.40000000    62.97000000
   C     51.26000000    60.66000000    63.18000000
   C     50.15000000    58.77000000    64.33000000
   C     52.75000000    60.54000000    63.50000000
   H     52.43000000    58.87000000    60.62000000
   H     52.02000000    58.02000000    62.63000000
   H     49.43000000    59.65000000    62.63000000
   H     50.86000000    61.26000000    63.99000000
   H     51.28000000    61.17000000    62.21000000
   H     49.67000000    59.59000000    64.87000000
   H     49.40000000    57.98000000    64.35000000
   H     51.02000000    58.35000000    64.84000000
   H     53.06000000    61.58000000    63.55000000
   H     52.97000000    60.04000000    64.44000000
   H     53.20000000    59.93000000    62.71000000
   N     49.18000000    57.09000000    61.40000000
   C     48.43000000    55.87000000    61.22000000
   C     47.73000000    55.44000000    62.50000000
   O     47.69000000    54.27000000    62.87000000
   C     47.58000000    55.92000000    59.96000000
   O     46.43000000    56.73000000    60.13000000
   H     48.94000000    57.85000000    60.78000000
   H     49.20000000    55.14000000    61.01000000
   H     47.32000000    54.93000000    59.60000000
   H     48.11000000    56.38000000    59.12000000
   H     46.46000000    57.33000000    59.38000000
   N     47.32000000    56.43000000    63.30000000
   C     46.88000000    56.35000000    64.68000000
   C     47.70000000    55.52000000    65.66000000
   O     47.20000000    55.32000000    66.76000000
   C     45.37000000    56.12000000    64.69000000
   H     47.39000000    57.33000000    62.83000000
   H     46.99000000    57.39000000    64.98000000
   H     45.27000000    55.04000000    64.74000000
   H     45.04000000    56.54000000    65.64000000
   H     44.87000000    56.49000000    63.79000000
   N     48.94000000    55.16000000    65.31000000
   C     49.79000000    54.39000000    66.20000000
   C     50.59000000    55.28000000    67.13000000
   O     50.49000000    56.51000000    67.12000000
   C     50.66000000    53.41000000    65.42000000
   H     49.18000000    55.27000000    64.33000000
   H     49.16000000    53.77000000    66.84000000
   H     49.98000000    52.71000000    64.94000000
   H     51.29000000    53.73000000    64.58000000
   H     51.31000000    52.88000000    66.11000000
   N     51.27000000    54.69000000    68.12000000
   C     52.20000000    55.23000000    69.09000000
   C     51.88000000    56.43000000    69.98000000
   O     52.66000000    56.90000000    70.81000000
   C     53.55000000    55.41000000    68.40000000
   C     54.08000000    54.15000000    67.73000000
   C     55.50000000    54.13000000    67.17000000
   O     56.46000000    54.80000000    67.62000000
   O     55.62000000    53.53000000    66.09000000
   H     51.14000000    53.70000000    68.23000000
   H     52.32000000    54.41000000    69.80000000
   H     54.27000000    55.79000000    69.12000000
   H     53.40000000    56.19000000    67.66000000
   H     53.48000000    54.03000000    66.83000000
   H     53.95000000    53.32000000    68.43000000
   N     50.67000000    56.98000000    69.90000000
   C     50.18000000    58.13000000    70.63000000
   H     49.18000000    57.92000000    71.01000000
   H     50.84800000    58.34300000    71.46500000
   H     50.14200000    58.99300000    69.96600000
   H     50.07000000    56.61000000    69.17000000
  Ca     58.17000000    54.20000000    65.61000000
   O     60.63000000    53.25000000    64.77000000
   H     61.38000000    53.58000000    65.27000000
   H     61.02000000    52.67000000    64.11000000
   O     58.21000000    51.81000000    67.07000000
   H     58.16000000    50.88000000    66.85000000
   H     58.60000000    51.84000000    67.94000000
   O     56.02000000    53.66000000    63.45000000
   H     55.67000000    53.25000000    62.67000000
   H     55.45000000    53.37000000    64.16000000
   O     58.44000000    54.51000000    62.73000000
   H     57.51000000    54.29000000    62.84000000
   H     58.61000000    54.33000000    61.80000000
   O     60.05000000    53.91000000    67.85000000
   H     60.03000000    54.84000000    68.09000000
   H     60.97000000    53.67000000    67.90000000
   O     57.94000000    51.81000000    64.20000000
   H     58.45000000    51.05000000    63.92000000
   H     57.12000000    51.74000000    63.72000000

Ca 1.70



