%chk=loop2.cluster221.chk
%nprocshared=48
%mem=10GB
%nosave
#b3lyp/svp scf=(tight,noincore) Test 
#IOP(5/87=12) Density=Current Pop=(MK,readradii) iop(6/33=2) iop(6/42=6)

loop2.cluster221 

   -2  1 
   C      7.77000000    70.45000000    11.88000000
   C      7.00000000    70.88000000    10.64000000
   O      7.45000000    71.73000000     9.88000000
   H      8.67100000    71.05600000    11.97600000
   H      7.14500000    70.58700000    12.76200000
   H      8.04800000    69.40000000    11.79000000
   N      5.84000000    70.25000000    10.42000000
   C      5.13000000    70.32000000     9.16000000
   C      4.61000000    71.75000000     9.05000000
   O      4.02000000    72.36000000     9.93000000
   C      4.11000000    69.19000000     9.03000000
   C      3.77000000    68.94000000     7.57000000
   O      3.33000000    69.92000000     6.93000000
   O      3.90000000    67.82000000     7.02000000
   H      5.53000000    69.54000000    11.07000000
   H      5.88000000    70.19000000     8.37000000
   H      3.20000000    69.50000000     9.54000000
   H      4.41000000    68.32000000     9.61000000
   N      5.00000000    72.37000000     7.94000000
   C      4.61000000    73.69000000     7.49000000
   C      3.38000000    73.70000000     6.59000000
   O      3.00000000    74.75000000     6.08000000
   C      5.80000000    74.22000000     6.69000000
   H      5.50000000    71.72000000     7.34000000
   H      4.47000000    74.36000000     8.34000000
   H      5.68000000    75.28000000     6.49000000
   H      6.71000000    74.23000000     7.29000000
   H      5.93000000    73.75000000     5.72000000
   N      2.67000000    72.59000000     6.39000000
   C      1.49000000    72.59000000     5.55000000
   C      0.41000000    71.62000000     6.02000000
   O     -0.73000000    71.60000000     5.57000000
   C      1.90000000    72.45000000     4.09000000
   C      2.58000000    71.12000000     3.80000000
   O      3.68000000    71.06000000     3.21000000
   O      1.89000000    70.11000000     4.03000000
   H      2.95000000    71.72000000     6.81000000
   H      0.99000000    73.56000000     5.59000000
   H      2.73000000    73.11000000     3.86000000
   H      1.02000000    72.60000000     3.45000000
   N      0.72000000    70.91000000     7.11000000
   C     -0.08000000    70.02000000     7.92000000
   C     -0.41000000    68.64000000     7.35000000
   O     -0.79000000    67.81000000     8.17000000
   H      1.68000000    70.95000000     7.40000000
   H     -1.06000000    70.49000000     8.03000000
   H      0.44000000    69.79000000     8.85000000
   N     -0.15000000    68.37000000     6.07000000
   C     -0.36000000    67.12000000     5.38000000
   C      0.44000000    66.02000000     6.07000000
   O      0.16000000    64.86000000     5.76000000
   C     -0.10000000    67.18000000     3.88000000
   C      1.38000000    67.19000000     3.51000000
   N      1.59000000    67.23000000     2.19000000
   O      2.31000000    67.21000000     4.32000000
   H      0.22000000    69.16000000     5.56000000
   H     -1.39000000    66.78000000     5.46000000
   H     -0.58000000    68.09000000     3.52000000
   H     -0.51000000    66.30000000     3.38000000
   H      0.83000000    67.37000000     1.54000000
   H      2.53000000    67.21000000     1.83000000
   N      1.25000000    66.20000000     7.11000000
   C      1.89000000    65.03000000     7.69000000
   C      2.93000000    64.35000000     6.82000000
   O      3.16000000    63.17000000     7.06000000
   H      1.48000000    67.13000000     7.42000000
   H      1.10000000    64.35000000     7.99000000
   H      2.40000000    65.27000000     8.63000000
   N      3.53000000    65.02000000     5.83000000
   C      4.51000000    64.43000000     4.95000000
   C      5.61000000    65.45000000     4.67000000
   O      5.32000000    66.60000000     4.35000000
   C      4.01000000    63.86000000     3.63000000
   C      5.01000000    63.39000000     2.58000000
   O      3.16000000    62.77000000     3.90000000
   H      3.09000000    65.89000000     5.54000000
   H      4.90000000    63.58000000     5.50000000
   H      3.39000000    64.62000000     3.14000000
   H      3.79000000    62.19000000     4.33000000
   H      5.70000000    64.22000000     2.45000000
   H      5.55000000    62.50000000     2.89000000
   H      4.52000000    63.17000000     1.63000000
   N      6.84000000    64.98000000     4.87000000
   C      8.02000000    65.78000000     5.18000000
   C      8.65000000    66.35000000     3.92000000
   O      9.20000000    65.62000000     3.10000000
   C      9.11000000    65.14000000     6.03000000
   C      8.65000000    64.21000000     7.15000000
   C     10.07000000    66.23000000     6.50000000
   C      9.74000000    63.68000000     8.08000000
   H      6.97000000    64.02000000     5.14000000
   H      7.69000000    66.56000000     5.86000000
   H      9.72000000    64.51000000     5.38000000
   H      8.12000000    63.36000000     6.71000000
   H      7.96000000    64.78000000     7.76000000
   H     11.03000000    65.86000000     6.87000000
   H     10.39000000    66.82000000     5.64000000
   H      9.69000000    66.78000000     7.35000000
   H      9.94000000    64.41000000     8.85000000
   H      9.56000000    62.79000000     8.67000000
   H     10.66000000    63.39000000     7.56000000
   N      8.60000000    67.68000000     3.75000000
   C      9.35000000    68.40000000     2.74000000
   C     10.67000000    68.89000000     3.33000000
   O     10.80000000    68.98000000     4.54000000
   C      8.47000000    69.54000000     2.22000000
   C      7.06000000    69.17000000     1.81000000
   O      6.12000000    69.16000000     2.63000000
   O      6.85000000    68.86000000     0.61000000
   H      8.16000000    68.17000000     4.52000000
   H      9.60000000    67.73000000     1.92000000
   H      9.05000000    69.94000000     1.39000000
   H      8.42000000    70.31000000     3.00000000
   N     11.72000000    68.98000000     2.51000000
   C     13.01000000    69.36000000     3.06000000
   C     13.01000000    70.69000000     3.80000000
   O     13.86000000    70.80000000     4.68000000
   C     14.07000000    69.28000000     1.96000000
   C     15.50000000    69.41000000     2.41000000
   C     16.10000000    70.68000000     2.47000000
   C     16.25000000    68.25000000     2.61000000
   C     17.46000000    70.75000000     2.79000000
   C     17.63000000    68.33000000     2.84000000
   C     18.23000000    69.59000000     2.95000000
   H     11.60000000    68.84000000     1.52000000
   H     13.19000000    68.59000000     3.81000000
   H     13.88000000    70.07000000     1.23000000
   H     13.95000000    68.34000000     1.41000000
   H     15.54000000    71.56000000     2.22000000
   H     15.78000000    67.31000000     2.38000000
   H     17.97000000    71.70000000     2.72000000
   H     18.19000000    67.41000000     2.97000000
   H     19.29000000    69.70000000     3.12000000
   N     12.20000000    71.74000000     3.64000000
   C     12.16000000    72.82000000     4.60000000
   C     11.65000000    72.43000000     5.98000000
   O     12.01000000    73.02000000     6.99000000
   C     11.30000000    73.89000000     3.95000000
   C     11.15000000    73.45000000     2.50000000
   C     11.33000000    71.94000000     2.49000000
   H     13.16000000    73.24000000     4.75000000
   H     10.29000000    74.02000000     4.36000000
   H     11.84000000    74.83000000     4.06000000
   H     10.31000000    73.82000000     1.91000000
   H     12.04000000    73.87000000     2.02000000
   H     10.33000000    71.53000000     2.59000000
   H     11.78000000    71.63000000     1.55000000
   N     10.87000000    71.35000000     6.09000000
   C     10.37000000    70.75000000     7.31000000
   C     11.47000000    69.96000000     8.00000000
   O     11.75000000    70.18000000     9.17000000
   C      9.10000000    69.95000000     7.05000000
   C      8.03000000    70.82000000     6.38000000
   C      6.77000000    70.10000000     5.91000000
   O      5.80000000    70.81000000     5.57000000
   O      6.81000000    68.86000000     5.75000000
   H     10.44000000    71.09000000     5.21000000
   H     10.16000000    71.56000000     8.01000000
   H      8.71000000    69.67000000     8.02000000
   H      9.25000000    69.02000000     6.50000000
   H      8.39000000    71.31000000     5.48000000
   H      7.78000000    71.59000000     7.11000000
   N     12.14000000    69.18000000     7.14000000
   C     13.38000000    68.50000000     7.48000000
   H     14.14200000    69.23800000     7.73000000
   H     13.21400000    67.84600000     8.33600000
   H     13.71500000    67.90700000     6.62900000
   H     11.98000000    69.18000000     6.15000000
  Ca      4.29000000    68.92000000     4.64000000
   O      4.33000000    67.48000000     1.78000000
   H      4.44000000    67.22000000     0.86000000
   H      5.07000000    68.07000000     1.94000000

Ca 1.70



