%chk=loop1.cluster43.chk
%nprocshared=48
%mem=10GB
%nosave
#b3lyp/svp scf=(tight,noincore) Test 
#IOP(5/87=12) Density=Current Pop=(MK,readradii) iop(6/33=2) iop(6/42=6)

loop1.cluster43 

   0  1 
   C     38.43000000    -7.70000000    36.80000000
   C     38.92000000    -9.01000000    37.40000000
   O     39.45000000    -9.87000000    36.70000000
   H     37.50700000    -7.39700000    37.29500000
   H     39.18700000    -6.92900000    36.94200000
   H     38.24300000    -7.83500000    35.73500000
   N     38.77000000    -9.06000000    38.73000000
   C     39.28000000   -10.16000000    39.52000000
   C     38.18000000   -11.11000000    39.98000000
   O     38.22000000   -11.79000000    41.00000000
   C     40.05000000    -9.56000000    40.69000000
   C     39.24000000    -8.59000000    41.54000000
   O     38.58000000    -7.65000000    41.03000000
   O     38.97000000    -8.86000000    42.73000000
   H     38.52000000    -8.24000000    39.26000000
   H     40.01000000   -10.77000000    38.99000000
   H     40.94000000    -9.08000000    40.28000000
   H     40.38000000   -10.39000000    41.32000000
   N     37.04000000   -10.99000000    39.30000000
   C     35.82000000   -11.57000000    39.81000000
   C     35.05000000   -12.39000000    38.77000000
   O     34.04000000   -11.92000000    38.25000000
   C     34.92000000   -10.46000000    40.34000000
   C     35.41000000    -9.93000000    41.68000000
   C     34.62000000    -8.67000000    42.01000000
   C     34.96000000    -7.93000000    43.29000000
   N     36.34000000    -7.44000000    43.31000000
   H     37.05000000   -10.40000000    38.48000000
   H     35.98000000   -12.19000000    40.69000000
   H     33.92000000   -10.83000000    40.57000000
   H     34.95000000    -9.63000000    39.62000000
   H     36.42000000    -9.57000000    41.48000000
   H     35.32000000   -10.66000000    42.48000000
   H     33.55000000    -8.89000000    42.09000000
   H     34.84000000    -8.00000000    41.18000000
   H     34.75000000    -8.63000000    44.10000000
   H     34.22000000    -7.13000000    43.42000000
   H     37.03000000    -8.17000000    43.41000000
   H     36.66000000    -6.96000000    42.47000000
   H     36.50000000    -6.94000000    44.18000000
   N     35.52000000   -13.57000000    38.36000000
   C     36.65000000   -14.39000000    38.75000000
   C     36.61000000   -14.83000000    40.21000000
   O     35.69000000   -14.52000000    40.96000000
   C     38.00000000   -13.88000000    38.27000000
   C     38.47000000   -14.69000000    37.07000000
   O     39.71000000   -14.82000000    36.93000000
   O     37.68000000   -15.25000000    36.28000000
   H     34.84000000   -14.07000000    37.80000000
   H     36.49000000   -15.32000000    38.22000000
   H     38.75000000   -14.06000000    39.03000000
   H     37.95000000   -12.85000000    37.92000000
   N     37.45000000   -15.72000000    40.73000000
   C     38.45000000   -16.48000000    40.01000000
   C     39.21000000   -17.35000000    41.01000000
   O     38.61000000   -17.78000000    41.99000000
   H     37.34000000   -15.94000000    41.71000000
   H     39.14000000   -15.92000000    39.37000000
   H     37.85000000   -17.23000000    39.51000000
   N     40.47000000   -17.69000000    40.73000000
   C     41.25000000   -17.46000000    39.52000000
   C     41.67000000   -16.01000000    39.36000000
   O     42.12000000   -15.59000000    38.29000000
   C     42.55000000   -18.27000000    39.53000000
   C     43.37000000   -17.97000000    40.77000000
   O     43.97000000   -16.87000000    40.86000000
   O     43.42000000   -18.81000000    41.70000000
   H     40.83000000   -18.34000000    41.41000000
   H     40.69000000   -17.81000000    38.65000000
   H     43.23000000   -18.05000000    38.71000000
   H     42.22000000   -19.30000000    39.46000000
   N     41.42000000   -15.20000000    40.38000000
   C     41.52000000   -13.75000000    40.48000000
   C     42.94000000   -13.23000000    40.30000000
   O     43.15000000   -12.02000000    40.43000000
   H     41.12000000   -15.68000000    41.22000000
   H     41.09000000   -13.35000000    41.39000000
   H     40.93000000   -13.28000000    39.69000000
   N     43.97000000   -14.06000000    40.16000000
   C     45.22000000   -13.67000000    39.51000000
   C     44.87000000   -13.11000000    38.15000000
   O     44.07000000   -13.60000000    37.35000000
   C     46.19000000   -14.84000000    39.55000000
   C     47.39000000   -14.54000000    38.65000000
   O     45.73000000   -16.06000000    39.01000000
   H     43.75000000   -15.04000000    40.12000000
   H     45.58000000   -12.89000000    40.17000000
   H     46.51000000   -14.99000000    40.58000000
   H     44.98000000   -16.31000000    39.55000000
   H     47.16000000   -14.35000000    37.61000000
   H     47.90000000   -13.67000000    39.09000000
   H     48.04000000   -15.41000000    38.64000000
   N     45.57000000   -12.02000000    37.83000000
   C     45.24000000   -11.12000000    36.75000000
   C     46.56000000   -10.59000000    36.22000000
   O     47.18000000    -9.78000000    36.91000000
   C     44.24000000   -10.07000000    37.22000000
   C     43.91000000    -9.12000000    36.07000000
   C     44.60000000    -9.37000000    38.53000000
   C     42.83000000    -8.11000000    36.43000000
   H     46.23000000   -11.72000000    38.54000000
   H     44.74000000   -11.72000000    35.99000000
   H     43.35000000   -10.67000000    37.39000000
   H     43.61000000    -9.64000000    35.16000000
   H     44.83000000    -8.57000000    35.86000000
   H     44.67000000   -10.07000000    39.36000000
   H     45.56000000    -8.84000000    38.50000000
   H     43.85000000    -8.61000000    38.75000000
   H     43.32000000    -7.36000000    37.06000000
   H     42.33000000    -7.58000000    35.62000000
   H     41.99000000    -8.63000000    36.89000000
   N     46.97000000   -11.02000000    35.03000000
   C     48.23000000   -10.69000000    34.39000000
   C     48.24000000   -10.71000000    32.87000000
   O     49.25000000   -10.56000000    32.18000000
   C     49.34000000   -11.63000000    34.85000000
   C     49.18000000   -13.12000000    34.59000000
   O     49.57000000   -11.68000000    36.24000000
   H     46.37000000   -11.73000000    34.62000000
   H     48.56000000    -9.68000000    34.64000000
   H     50.27000000   -11.26000000    34.42000000
   H     49.60000000   -10.76000000    36.53000000
   H     49.12000000   -13.29000000    33.51000000
   H     50.01000000   -13.69000000    35.01000000
   H     48.32000000   -13.56000000    35.09000000
   N     46.99000000   -10.87000000    32.42000000
   C     46.68000000   -11.13000000    31.03000000
   C     47.06000000   -12.51000000    30.50000000
   O     47.83000000   -13.21000000    31.16000000
   C     47.20000000   -10.08000000    30.05000000
   C     47.12000000    -8.62000000    30.48000000
   O     46.72000000   -10.07000000    28.73000000
   H     46.29000000   -10.76000000    33.13000000
   H     45.60000000   -11.01000000    30.99000000
   H     48.27000000   -10.28000000    30.02000000
   H     46.66000000    -9.17000000    28.41000000
   H     47.97000000    -8.07000000    30.07000000
   H     46.14000000    -8.16000000    30.36000000
   H     47.40000000    -8.51000000    31.53000000
   N     46.54000000   -12.90000000    29.33000000
   C     46.81000000   -14.10000000    28.57000000
   C     45.81000000   -15.24000000    28.41000000
   O     46.21000000   -16.32000000    27.99000000
   C     47.39000000   -13.55000000    27.27000000
   C     48.91000000   -13.44000000    27.26000000
   C     49.41000000   -12.72000000    26.01000000
   C     50.92000000   -12.94000000    25.96000000
   N     51.48000000   -12.45000000    24.69000000
   H     45.84000000   -12.25000000    29.00000000
   H     47.66000000   -14.63000000    28.99000000
   H     47.15000000   -12.51000000    27.05000000
   H     47.15000000   -14.20000000    26.43000000
   H     49.47000000   -14.35000000    27.48000000
   H     49.25000000   -12.79000000    28.07000000
   H     49.13000000   -11.67000000    26.07000000
   H     48.89000000   -13.07000000    25.12000000
   H     51.14000000   -14.00000000    26.12000000
   H     51.45000000   -12.43000000    26.77000000
   H     52.48000000   -12.61000000    24.61000000
   H     51.03000000   -12.98000000    23.97000000
   H     51.26000000   -11.48000000    24.55000000
   N     44.52000000   -15.26000000    28.74000000
   C     43.64000000   -14.18000000    29.17000000
   C     43.69000000   -12.86000000    28.42000000
   O     43.70000000   -11.79000000    29.03000000
   C     43.60000000   -14.01000000    30.68000000
   C     43.39000000   -15.34000000    31.40000000
   C     42.90000000   -15.22000000    32.84000000
   O     43.10000000   -14.18000000    33.51000000
   O     42.25000000   -16.16000000    33.33000000
   H     44.12000000   -16.18000000    28.72000000
   H     42.64000000   -14.52000000    28.91000000
   H     42.80000000   -13.32000000    30.96000000
   H     44.49000000   -13.49000000    31.02000000
   H     44.38000000   -15.80000000    31.47000000
   H     42.75000000   -15.98000000    30.79000000
   N     43.86000000   -12.81000000    27.09000000
   C     43.70000000   -11.56000000    26.38000000
   H     42.91500000   -10.97100000    26.85400000
   H     44.63700000   -11.00400000    26.40700000
   H     43.42600000   -11.76200000    25.34400000
   H     43.93000000   -13.68000000    26.58000000
  Ca     42.08000000   -14.93400000    35.76000000
   O     39.99000000   -13.88400000    33.66000000
   H     39.51000000   -13.68400000    32.86000000
   H     39.43000000   -13.53400000    34.36000000
   O     44.71000000   -15.93400000    36.02000000
   H     45.04000000   -16.27400000    36.85000000
   H     45.50000000   -15.81400000    35.48000000
   O     41.22000000   -12.19400000    36.05000000
   H     40.91000000   -11.79400000    36.86000000
   H     41.14000000   -11.51400000    35.39000000
   O     41.93000000   -17.70400000    36.33000000
   H     41.96000000   -18.52400000    36.82000000
   H     41.24000000   -17.83400000    35.69000000
   O     39.79000000   -16.95400000    34.79000000
   H     39.67000000   -16.54400000    33.94000000
   H     39.31000000   -16.39400000    35.40000000

Ca 1.70



