%chk=loop4.cluster70.chk
%nprocshared=48
%mem=10GB
%nosave
#b3lyp/svp scf=(tight,noincore) Test 
#IOP(5/87=12) Density=Current Pop=(MK,readradii) iop(6/33=2) iop(6/42=6)

loop4.cluster70 

   -3  1 
   C     44.12000000    50.67000000    50.83000000
   C     44.19000000    49.99000000    52.20000000
   O     45.18000000    49.32000000    52.49000000
   H     43.83800000    51.71500000    50.95800000
   H     45.09500000    50.61400000    50.34500000
   H     43.37700000    50.16700000    50.21200000
   N     43.22000000    50.24000000    53.07000000
   C     43.14000000    49.98000000    54.50000000
   C     44.26000000    50.50000000    55.40000000
   O     44.53000000    49.91000000    56.44000000
   C     42.62000000    48.58000000    54.81000000
   C     43.42000000    47.34000000    54.45000000
   O     43.21000000    46.72000000    53.39000000
   O     44.25000000    46.94000000    55.30000000
   H     42.33000000    50.57000000    52.71000000
   H     42.31000000    50.61000000    54.84000000
   H     41.69000000    48.41000000    54.28000000
   H     42.31000000    48.61000000    55.85000000
   N     44.86000000    51.62000000    55.00000000
   C     45.95000000    52.29000000    55.67000000
   C     45.45000000    52.77000000    57.03000000
   O     46.07000000    52.58000000    58.07000000
   C     47.34000000    51.66000000    55.77000000
   C     48.42000000    52.74000000    55.81000000
   C     47.66000000    50.70000000    54.62000000
   C     49.85000000    52.22000000    55.84000000
   H     44.60000000    52.09000000    54.15000000
   H     46.04000000    53.27000000    55.20000000
   H     47.50000000    50.96000000    56.58000000
   H     48.31000000    53.25000000    56.77000000
   H     48.18000000    53.60000000    55.18000000
   H     48.08000000    51.31000000    53.82000000
   H     48.43000000    49.98000000    54.89000000
   H     46.77000000    50.21000000    54.22000000
   H     50.58000000    52.97000000    56.13000000
   H     49.96000000    51.45000000    56.61000000
   H     50.11000000    51.95000000    54.81000000
   N     44.22000000    53.27000000    57.00000000
   C     43.53000000    53.93000000    58.09000000
   C     42.30000000    53.14000000    58.51000000
   O     41.22000000    53.25000000    57.94000000
   C     43.09000000    55.35000000    57.75000000
   C     42.36000000    55.51000000    56.43000000
   O     42.16000000    54.60000000    55.59000000
   O     41.87000000    56.65000000    56.25000000
   H     43.65000000    53.23000000    56.16000000
   H     44.23000000    53.88000000    58.93000000
   H     43.98000000    55.98000000    57.72000000
   H     42.45000000    55.68000000    58.57000000
   N     42.32000000    52.39000000    59.61000000
   C     43.42000000    51.78000000    60.34000000
   C     43.78000000    50.45000000    59.70000000
   O     42.91000000    49.76000000    59.16000000
   H     41.38000000    52.20000000    59.93000000
   H     43.03000000    51.42000000    61.29000000
   H     44.25000000    52.47000000    60.53000000
   N     44.99000000    49.93000000    59.86000000
   C     46.19000000    50.43000000    60.50000000
   C     47.39000000    49.92000000    59.71000000
   O     47.27000000    48.80000000    59.20000000
   C     46.25000000    49.99000000    61.96000000
   C     47.54000000    50.49000000    62.59000000
   O     47.53000000    51.66000000    63.02000000
   O     48.49000000    49.71000000    62.82000000
   H     45.13000000    49.03000000    59.42000000
   H     46.29000000    51.51000000    60.47000000
   H     46.31000000    48.90000000    62.02000000
   H     45.32000000    50.28000000    62.45000000
   N     48.54000000    50.59000000    59.58000000
   C     48.75000000    51.96000000    59.98000000
   C     50.20000000    52.14000000    60.39000000
   O     50.77000000    53.23000000    60.35000000
   H     49.25000000    50.07000000    59.09000000
   H     48.14000000    52.26000000    60.83000000
   H     48.53000000    52.53000000    59.07000000
   N     50.76000000    51.10000000    61.01000000
   C     51.97000000    51.16000000    61.80000000
   C     53.21000000    50.92000000    60.93000000
   O     54.32000000    50.87000000    61.44000000
   C     52.02000000    50.21000000    62.99000000
   C     52.06000000    48.72000000    62.68000000
   C     51.53000000    47.86000000    63.82000000
   N     50.29000000    48.04000000    64.27000000
   O     52.28000000    47.07000000    64.38000000
   H     50.30000000    50.20000000    61.08000000
   H     52.03000000    52.12000000    62.30000000
   H     51.17000000    50.41000000    63.64000000
   H     52.90000000    50.31000000    63.63000000
   H     53.09000000    48.45000000    62.43000000
   H     51.43000000    48.52000000    61.82000000
   H     49.77000000    48.64000000    63.64000000
   H     49.89000000    47.56000000    65.07000000
   N     53.02000000    50.80000000    59.62000000
   C     53.92000000    50.39000000    58.56000000
   C     54.33000000    48.93000000    58.72000000
   O     53.50000000    48.03000000    58.77000000
   C     53.29000000    50.65000000    57.19000000
   C     54.00000000    49.90000000    56.06000000
   C     53.37000000    52.14000000    56.90000000
   H     52.04000000    50.75000000    59.37000000
   H     54.87000000    50.91000000    58.71000000
   H     52.23000000    50.41000000    57.17000000
   H     55.08000000    49.86000000    56.00000000
   H     53.59000000    48.89000000    56.03000000
   H     53.59000000    50.31000000    55.14000000
   H     52.74000000    52.48000000    56.08000000
   H     52.98000000    52.73000000    57.74000000
   H     54.43000000    52.38000000    56.77000000
   N     55.61000000    48.67000000    58.98000000
   C     56.46000000    47.51000000    58.80000000
   C     56.25000000    47.00000000    57.37000000
   O     56.52000000    47.67000000    56.37000000
   C     56.29000000    46.46000000    59.89000000
   C     56.70000000    46.97000000    61.27000000
   N     58.00000000    47.24000000    61.41000000
   O     55.95000000    47.21000000    62.21000000
   H     56.13000000    49.53000000    59.10000000
   H     57.49000000    47.87000000    58.80000000
   H     56.92000000    45.60000000    59.67000000
   H     55.27000000    46.11000000    60.06000000
   H     58.68000000    47.11000000    60.68000000
   H     58.32000000    47.46000000    62.34000000
   N     55.87000000    45.74000000    57.19000000
   C     55.86000000    45.16000000    55.86000000
   C     54.54000000    45.31000000    55.11000000
   O     53.46000000    45.30000000    55.69000000
   C     56.31000000    43.71000000    56.00000000
   C     57.53000000    43.55000000    56.87000000
   C     57.37000000    43.16000000    58.21000000
   C     58.76000000    43.97000000    56.35000000
   C     58.50000000    43.38000000    59.01000000
   C     59.90000000    44.12000000    57.15000000
   C     59.74000000    43.83000000    58.52000000
   O     60.82000000    44.00000000    59.33000000
   H     55.61000000    45.16000000    57.97000000
   H     56.64000000    45.67000000    55.30000000
   H     56.59000000    43.38000000    55.00000000
   H     55.48000000    43.07000000    56.30000000
   H     56.52000000    42.56000000    58.48000000
   H     58.84000000    44.32000000    55.33000000
   H     58.51000000    43.10000000    60.05000000
   H     60.83000000    44.42000000    56.68000000
   H     61.59000000    44.30000000    58.85000000
   N     54.56000000    45.12000000    53.78000000
   C     53.52000000    44.75000000    52.84000000
   C     52.37000000    45.73000000    52.63000000
   O     51.36000000    45.36000000    52.02000000
   C     53.23000000    43.26000000    52.94000000
   C     52.33000000    42.51000000    51.96000000
   C     52.33000000    41.05000000    52.38000000
   O     51.32000000    40.58000000    52.97000000
   O     53.36000000    40.38000000    52.18000000
   H     55.45000000    45.10000000    53.31000000
   H     54.06000000    44.75000000    51.90000000
   H     52.80000000    43.00000000    53.90000000
   H     54.19000000    42.74000000    52.88000000
   H     52.74000000    42.64000000    50.96000000
   H     51.30000000    42.87000000    52.04000000
   N     52.52000000    47.00000000    53.00000000
   C     51.61000000    48.09000000    52.69000000
   C     52.25000000    49.08000000    51.73000000
   O     51.61000000    49.57000000    50.80000000
   C     51.18000000    48.73000000    54.00000000
   C     50.62000000    47.78000000    55.05000000
   C     49.24000000    47.17000000    54.80000000
   O     48.87000000    46.23000000    55.52000000
   O     48.44000000    47.50000000    53.90000000
   H     53.42000000    47.23000000    53.39000000
   H     50.70000000    47.73000000    52.21000000
   H     50.56000000    49.62000000    53.87000000
   H     52.11000000    49.09000000    54.45000000
   H     50.52000000    48.35000000    55.98000000
   H     51.29000000    46.94000000    55.18000000
   N     53.54000000    49.37000000    51.94000000
   C     54.42000000    50.19000000    51.14000000
   H     55.37600000    49.68100000    51.01500000
   H     53.96900000    50.36100000    50.16200000
   H     54.58000000    51.14600000    51.63900000
   H     53.95000000    48.85000000    52.71000000
  Ca     46.49000000    45.90000000    54.84000000
   O     46.60000000    47.98000000    56.58000000
   H     46.92000000    48.48000000    57.33000000
   H     45.68000000    48.22000000    56.51000000
   O     44.44000000    44.11000000    54.47000000
   H     43.72000000    44.58000000    54.90000000
   H     44.20000000    43.19000000    54.54000000
   O     47.26000000    43.04000000    55.12000000
   H     47.96000000    42.55000000    54.69000000
   H     47.04000000    42.52000000    55.90000000
   O     46.46000000    44.81000000    57.42000000
   H     46.17000000    45.14000000    58.27000000
   H     46.27000000    43.87000000    57.46000000
   O     46.26000000    46.82000000    52.17000000
   H     46.93000000    46.81000000    51.49000000
   H     46.04000000    47.75000000    52.27000000

Ca 1.70



