%chk=loop3.cluster194.chk
%nprocshared=48
%mem=10GB
%nosave
#b3lyp/svp scf=(tight,noincore) Test 
#IOP(5/87=12) Density=Current Pop=(MK,readradii) iop(6/33=2) iop(6/42=6)

loop3.cluster194 

   0  1 
   C     61.99000000    36.88000000    69.08000000
   C     61.73000000    36.23000000    70.43000000
   O     60.69000000    36.45000000    71.04000000
   H     63.03200000    36.72700000    68.79800000
   H     61.34100000    36.43000000    68.32900000
   H     61.78500000    37.94900000    69.14500000
   N     62.76000000    35.62000000    71.01000000
   C     62.83000000    35.16000000    72.39000000
   C     62.88000000    36.32000000    73.37000000
   O     63.53000000    37.34000000    73.16000000
   C     64.00000000    34.19000000    72.50000000
   C     64.34000000    33.83000000    73.94000000
   O     63.81000000    32.84000000    74.48000000
   O     65.06000000    34.54000000    74.68000000
   H     63.61000000    35.72000000    70.47000000
   H     61.93000000    34.56000000    72.51000000
   H     64.86000000    34.74000000    72.13000000
   H     63.76000000    33.28000000    71.96000000
   N     62.20000000    36.10000000    74.50000000
   C     61.94000000    37.06000000    75.56000000
   C     63.20000000    37.39000000    76.34000000
   O     63.34000000    38.43000000    76.99000000
   C     60.76000000    36.73000000    76.47000000
   C     59.47000000    36.44000000    75.71000000
   C     58.23000000    36.31000000    76.58000000
   C     57.00000000    36.03000000    75.73000000
   N     55.87000000    35.57000000    76.55000000
   H     61.69000000    35.24000000    74.66000000
   H     61.64000000    37.97000000    75.04000000
   H     60.45000000    37.57000000    77.09000000
   H     61.09000000    35.88000000    77.07000000
   H     59.58000000    35.47000000    75.23000000
   H     59.25000000    37.18000000    74.94000000
   H     58.14000000    37.25000000    77.12000000
   H     58.36000000    35.53000000    77.33000000
   H     57.22000000    35.27000000    74.98000000
   H     56.74000000    36.95000000    75.21000000
   H     55.67000000    36.25000000    77.27000000
   H     54.98000000    35.48000000    76.07000000
   H     56.17000000    34.69000000    76.93000000
   N     64.28000000    36.61000000    76.27000000
   C     65.62000000    37.03000000    76.66000000
   C     66.59000000    37.15000000    75.49000000
   O     67.78000000    37.32000000    75.73000000
   C     66.16000000    36.18000000    77.81000000
   C     66.00000000    34.67000000    77.67000000
   O     66.87000000    34.00000000    77.08000000
   O     64.99000000    34.11000000    78.15000000
   H     64.22000000    35.80000000    75.67000000
   H     65.66000000    38.04000000    77.07000000
   H     65.64000000    36.58000000    78.68000000
   H     67.22000000    36.35000000    77.98000000
   N     66.13000000    37.03000000    74.24000000
   C     66.98000000    37.02000000    73.06000000
   C     67.91000000    35.82000000    72.95000000
   O     68.71000000    35.90000000    72.03000000
   H     65.14000000    36.94000000    74.12000000
   H     67.57000000    37.94000000    73.09000000
   H     66.39000000    36.95000000    72.15000000
   N     67.79000000    34.78000000    73.77000000
   C     68.61000000    33.59000000    73.70000000
   C     67.74000000    32.37000000    73.46000000
   O     66.90000000    32.12000000    74.32000000
   C     69.53000000    33.54000000    74.92000000
   C     70.48000000    32.37000000    75.16000000
   N     71.49000000    32.61000000    75.99000000
   O     70.34000000    31.32000000    74.54000000
   H     67.09000000    34.77000000    74.50000000
   H     69.34000000    33.75000000    72.90000000
   H     68.91000000    33.52000000    75.82000000
   H     70.04000000    34.50000000    74.88000000
   H     71.64000000    33.48000000    76.48000000
   H     72.06000000    31.83000000    76.28000000
   N     67.90000000    31.71000000    72.31000000
   C     66.97000000    30.80000000    71.67000000
   C     66.95000000    29.38000000    72.22000000
   O     66.21000000    28.54000000    71.72000000
   H     68.79000000    31.80000000    71.85000000
   H     66.98000000    30.93000000    70.59000000
   H     65.96000000    31.17000000    71.87000000
   N     67.82000000    29.09000000    73.19000000
   C     67.43000000    28.12000000    74.19000000
   C     66.11000000    28.53000000    74.83000000
   O     65.99000000    29.71000000    75.15000000
   C     68.51000000    27.99000000    75.26000000
   C     69.71000000    27.17000000    74.85000000
   C     70.83000000    27.61000000    74.14000000
   C     69.67000000    25.81000000    75.15000000
   C     71.90000000    26.79000000    73.75000000
   C     70.71000000    24.95000000    74.80000000
   C     71.83000000    25.43000000    74.09000000
   O     72.79000000    24.52000000    73.76000000
   H     68.57000000    29.70000000    73.50000000
   H     67.29000000    27.11000000    73.79000000
   H     67.97000000    27.42000000    76.01000000
   H     68.82000000    28.97000000    75.61000000
   H     70.93000000    28.66000000    73.91000000
   H     68.77000000    25.43000000    75.62000000
   H     72.74000000    27.18000000    73.18000000
   H     70.68000000    23.90000000    75.05000000
   H     72.68000000    23.66000000    74.18000000
   N     65.14000000    27.62000000    74.97000000
   C     63.82000000    27.81000000    75.53000000
   C     63.73000000    28.49000000    76.89000000
   O     64.43000000    29.42000000    77.29000000
   C     62.80000000    28.35000000    74.54000000
   C     62.77000000    27.49000000    73.28000000
   C     62.96000000    29.86000000    74.35000000
   C     61.71000000    27.95000000    72.28000000
   H     65.40000000    26.68000000    74.73000000
   H     63.55000000    26.78000000    75.79000000
   H     61.77000000    28.16000000    74.86000000
   H     62.45000000    26.48000000    73.53000000
   H     63.68000000    27.47000000    72.69000000
   H     62.87000000    30.47000000    75.24000000
   H     63.92000000    30.05000000    73.86000000
   H     62.22000000    30.27000000    73.66000000
   H     61.95000000    28.93000000    71.87000000
   H     61.81000000    27.28000000    71.42000000
   H     60.73000000    27.75000000    72.71000000
   N     62.90000000    27.80000000    77.68000000
   C     62.71000000    27.89000000    79.11000000
   C     62.40000000    26.65000000    79.93000000
   O     62.63000000    26.61000000    81.14000000
   C     61.68000000    28.98000000    79.40000000
   O     60.51000000    28.61000000    78.71000000
   H     62.30000000    27.14000000    77.21000000
   H     63.69000000    28.21000000    79.49000000
   H     62.05000000    29.97000000    79.11000000
   H     61.48000000    29.14000000    80.46000000
   H     59.84000000    29.30000000    78.73000000
   N     61.94000000    25.59000000    79.28000000
   C     61.64000000    24.28000000    79.83000000
   C     61.05000000    24.29000000    81.24000000
   O     61.68000000    23.93000000    82.23000000
   C     62.91000000    23.45000000    79.72000000
   H     61.80000000    25.64000000    78.28000000
   H     60.84000000    23.89000000    79.21000000
   H     62.71000000    22.55000000    80.32000000
   H     63.01000000    23.26000000    78.65000000
   H     63.75000000    23.96000000    80.19000000
   N     59.83000000    24.80000000    81.42000000
   C     59.05000000    25.63000000    80.52000000
   C     57.73000000    25.06000000    80.01000000
   O     57.07000000    24.26000000    80.67000000
   C     58.93000000    26.97000000    81.22000000
   H     59.58000000    24.79000000    82.40000000
   H     59.64000000    25.88000000    79.64000000
   H     58.43000000    26.91000000    82.18000000
   H     59.97000000    27.29000000    81.37000000
   H     58.39000000    27.64000000    80.55000000
   N     57.26000000    25.51000000    78.85000000
   C     57.90000000    26.18000000    77.73000000
   C     57.89000000    25.36000000    76.44000000
   O     58.77000000    25.40000000    75.58000000
   C     57.47000000    27.62000000    77.49000000
   C     57.83000000    28.29000000    76.17000000
   C     57.24000000    29.68000000    75.94000000
   O     56.21000000    29.81000000    75.25000000
   O     57.77000000    30.62000000    76.56000000
   H     56.33000000    25.14000000    78.71000000
   H     58.97000000    26.20000000    77.89000000
   H     57.78000000    28.26000000    78.32000000
   H     56.39000000    27.59000000    77.62000000
   H     57.43000000    27.69000000    75.35000000
   H     58.87000000    28.26000000    75.86000000
   N     56.89000000    24.49000000    76.29000000
   C     56.73000000    23.79000000    75.03000000
   H     56.05000000    24.35000000    74.38800000
   H     57.69900000    23.69800000    74.53900000
   H     56.32000000    22.79700000    75.21500000
   H     56.11000000    24.60000000    76.93000000
  Ca     65.35000000    31.97000000    76.39000000
   O     65.69000000    31.31000000    79.00000000
   H     65.63000000    31.68000000    79.88000000
   H     65.12000000    30.54000000    79.02000000
   O     62.69000000    31.97000000    77.11000000
   H     62.60000000    32.59000000    77.83000000
   H     61.80000000    31.67000000    76.93000000
   O     67.91000000    30.88000000    77.10000000
   H     67.51000000    30.09000000    77.45000000
   H     68.50000000    31.19000000    77.79000000

Ca 1.70



