%chk=loop1.cluster134.chk
%nprocshared=48
%mem=10GB
%nosave
#b3lyp/svp scf=(tight,noincore) Test 
#IOP(5/87=12) Density=Current Pop=(MK,readradii) iop(6/33=2) iop(6/42=6)

loop1.cluster134 

   0  1 
   C     48.17000000    -7.70000000    24.77000000
   C     48.70000000    -8.53000000    25.93000000
   O     49.04000000    -9.71000000    25.78000000
   H     47.27700000    -7.16200000    25.08700000
   H     48.93100000    -6.98600000    24.45500000
   H     47.92000000    -8.35700000    23.93700000
   N     48.68000000    -8.03000000    27.16000000
   C     49.07000000    -8.72000000    28.37000000
   C     48.03000000    -9.63000000    29.02000000
   O     48.41000000   -10.22000000    30.03000000
   C     49.65000000    -7.76000000    29.41000000
   C     48.75000000    -6.58000000    29.74000000
   O     48.13000000    -6.84000000    30.79000000
   O     48.73000000    -5.49000000    29.12000000
   H     48.67000000    -7.02000000    27.19000000
   H     49.85000000    -9.45000000    28.17000000
   H     50.60000000    -7.46000000    28.97000000
   H     49.96000000    -8.28000000    30.31000000
   N     46.78000000    -9.67000000    28.56000000
   C     45.67000000   -10.35000000    29.20000000
   C     45.25000000   -11.57000000    28.40000000
   O     44.10000000   -11.53000000    27.98000000
   C     44.60000000    -9.30000000    29.52000000
   C     45.12000000    -8.15000000    30.37000000
   C     44.14000000    -6.98000000    30.54000000
   C     44.66000000    -5.87000000    31.44000000
   N     45.77000000    -5.12000000    30.82000000
   H     46.52000000    -9.20000000    27.71000000
   H     45.94000000   -10.74000000    30.18000000
   H     43.70000000    -9.72000000    29.98000000
   H     44.24000000    -8.90000000    28.57000000
   H     46.02000000    -7.73000000    29.92000000
   H     45.29000000    -8.59000000    31.35000000
   H     43.18000000    -7.42000000    30.83000000
   H     43.99000000    -6.51000000    29.57000000
   H     44.93000000    -6.36000000    32.37000000
   H     43.87000000    -5.16000000    31.66000000
   H     45.61000000    -4.86000000    29.86000000
   H     45.94000000    -4.27000000    31.34000000
   H     46.65000000    -5.61000000    30.68000000
   N     45.89000000   -12.72000000    28.17000000
   C     47.25000000   -13.13000000    28.43000000
   C     47.52000000   -13.37000000    29.91000000
   O     46.68000000   -13.09000000    30.77000000
   C     48.25000000   -12.31000000    27.62000000
   C     48.78000000   -13.09000000    26.43000000
   O     49.42000000   -14.16000000    26.50000000
   O     48.67000000   -12.66000000    25.26000000
   H     45.39000000   -13.41000000    27.62000000
   H     47.33000000   -14.16000000    28.07000000
   H     49.17000000   -12.04000000    28.15000000
   H     47.79000000   -11.41000000    27.22000000
   N     48.64000000   -13.97000000    30.31000000
   C     49.56000000   -14.78000000    29.54000000
   C     50.64000000   -15.63000000    30.19000000
   O     50.39000000   -16.16000000    31.27000000
   H     48.77000000   -13.90000000    31.31000000
   H     50.14000000   -14.06000000    28.97000000
   H     48.93000000   -15.41000000    28.90000000
   N     51.73000000   -15.99000000    29.51000000
   C     52.05000000   -15.61000000    28.15000000
   C     52.82000000   -14.30000000    28.05000000
   O     52.52000000   -13.60000000    27.09000000
   C     52.86000000   -16.70000000    27.45000000
   C     53.31000000   -16.41000000    26.02000000
   O     54.32000000   -16.99000000    25.59000000
   O     52.56000000   -15.76000000    25.27000000
   H     52.39000000   -16.58000000    30.00000000
   H     51.10000000   -15.50000000    27.63000000
   H     52.30000000   -17.63000000    27.47000000
   H     53.76000000   -16.85000000    28.05000000
   N     53.65000000   -13.97000000    29.04000000
   C     54.23000000   -12.64000000    29.13000000
   C     55.26000000   -12.16000000    28.12000000
   O     56.16000000   -11.37000000    28.41000000
   H     53.86000000   -14.68000000    29.73000000
   H     54.66000000   -12.48000000    30.12000000
   H     53.40000000   -11.95000000    28.97000000
   N     55.11000000   -12.60000000    26.87000000
   C     55.69000000   -12.08000000    25.64000000
   C     54.57000000   -11.94000000    24.62000000
   O     53.69000000   -12.78000000    24.46000000
   C     56.78000000   -13.05000000    25.21000000
   C     56.30000000   -14.38000000    24.63000000
   O     57.75000000   -13.24000000    26.20000000
   H     54.44000000   -13.33000000    26.73000000
   H     56.10000000   -11.11000000    25.93000000
   H     57.29000000   -12.53000000    24.40000000
   H     57.61000000   -14.09000000    26.63000000
   H     55.90000000   -14.32000000    23.61000000
   H     57.15000000   -15.04000000    24.48000000
   H     55.60000000   -14.80000000    25.35000000
   N     54.93000000   -11.09000000    23.65000000
   C     54.19000000   -10.94000000    22.41000000
   C     55.03000000   -11.48000000    21.26000000
   O     55.68000000   -10.72000000    20.55000000
   C     53.60000000    -9.54000000    22.34000000
   C     52.71000000    -9.24000000    21.13000000
   C     54.64000000    -8.43000000    22.50000000
   C     52.15000000    -7.82000000    21.09000000
   H     55.62000000   -10.37000000    23.84000000
   H     53.37000000   -11.65000000    22.34000000
   H     52.85000000    -9.55000000    23.14000000
   H     51.81000000    -9.85000000    21.22000000
   H     53.02000000    -9.51000000    20.12000000
   H     55.24000000    -8.36000000    21.59000000
   H     54.12000000    -7.49000000    22.67000000
   H     55.25000000    -8.56000000    23.39000000
   H     52.93000000    -7.10000000    20.83000000
   H     51.35000000    -7.77000000    20.36000000
   H     51.81000000    -7.65000000    22.11000000
   N     55.06000000   -12.78000000    20.99000000
   C     55.64000000   -13.42000000    19.82000000
   C     54.61000000   -13.80000000    18.76000000
   O     55.01000000   -13.95000000    17.61000000
   C     56.58000000   -14.56000000    20.18000000
   C     55.99000000   -15.76000000    20.92000000
   O     57.46000000   -13.99000000    21.13000000
   H     54.49000000   -13.35000000    21.60000000
   H     56.28000000   -12.70000000    19.30000000
   H     57.11000000   -14.87000000    19.28000000
   H     57.98000000   -13.32000000    20.68000000
   H     56.62000000   -16.64000000    20.84000000
   H     55.66000000   -15.56000000    21.94000000
   H     55.13000000   -16.00000000    20.29000000
   N     53.34000000   -14.01000000    19.12000000
   C     52.39000000   -14.69000000    18.27000000
   C     52.62000000   -16.20000000    18.22000000
   O     53.72000000   -16.63000000    18.55000000
   C     52.22000000   -14.06000000    16.89000000
   C     51.96000000   -12.56000000    16.75000000
   O     51.11000000   -14.65000000    16.27000000
   H     53.03000000   -14.02000000    20.08000000
   H     51.40000000   -14.60000000    18.71000000
   H     53.07000000   -14.32000000    16.25000000
   H     51.08000000   -14.29000000    15.38000000
   H     51.90000000   -12.26000000    15.71000000
   H     51.00000000   -12.29000000    17.20000000
   H     52.83000000   -12.07000000    17.19000000
   N     51.59000000   -16.90000000    17.76000000
   C     51.66000000   -18.35000000    17.68000000
   C     50.75000000   -19.21000000    18.55000000
   O     51.01000000   -20.41000000    18.56000000
   C     51.58000000   -18.77000000    16.22000000
   C     52.94000000   -18.83000000    15.53000000
   C     52.87000000   -18.97000000    14.02000000
   C     54.23000000   -19.09000000    13.32000000
   N     54.04000000   -19.24000000    11.87000000
   H     50.76000000   -16.45000000    17.41000000
   H     52.62000000   -18.69000000    18.06000000
   H     50.95000000   -18.05000000    15.69000000
   H     51.11000000   -19.75000000    16.19000000
   H     53.51000000   -19.65000000    15.98000000
   H     53.52000000   -17.92000000    15.68000000
   H     52.31000000   -18.10000000    13.68000000
   H     52.14000000   -19.73000000    13.74000000
   H     54.73000000   -19.99000000    13.67000000
   H     54.74000000   -18.16000000    13.58000000
   H     53.54000000   -18.48000000    11.44000000
   H     54.96000000   -19.34000000    11.46000000
   H     53.41000000   -20.00000000    11.64000000
   N     49.69000000   -18.90000000    19.30000000
   C     49.09000000   -17.60000000    19.53000000
   C     48.80000000   -16.82000000    18.25000000
   O     49.07000000   -15.63000000    18.13000000
   C     49.81000000   -16.88000000    20.67000000
   C     48.92000000   -16.04000000    21.57000000
   C     49.75000000   -15.18000000    22.52000000
   O     50.42000000   -14.19000000    22.17000000
   O     49.84000000   -15.45000000    23.74000000
   H     49.33000000   -19.72000000    19.77000000
   H     48.08000000   -17.77000000    19.88000000
   H     50.67000000   -16.35000000    20.24000000
   H     50.22000000   -17.64000000    21.33000000
   H     48.20000000   -16.59000000    22.18000000
   H     48.26000000   -15.39000000    20.99000000
   N     48.32000000   -17.47000000    17.19000000
   C     48.02000000   -16.82000000    15.93000000
   H     47.20500000   -16.11000000    16.07300000
   H     48.90400000   -16.29000000    15.57400000
   H     47.72400000   -17.56900000    15.19500000
   H     48.05000000   -18.44000000    17.22000000
  Ca     51.20000000   -13.60900000    24.76000000
   O     50.48000000   -11.54900000    23.29000000
   H     49.74000000   -11.01900000    23.58000000
   H     50.52000000   -11.40900000    22.34000000
   O     53.00000000   -14.43900000    22.14000000
   H     53.32000000   -15.32900000    22.28000000
   H     52.06000000   -14.54900000    22.01000000
   O     51.36000000   -11.11900000    26.13000000
   H     52.11000000   -10.53900000    26.27000000
   H     50.62000000   -10.52900000    25.97000000

Ca 1.70



