%chk=loop2.cluster195.chk
%nprocshared=48
%mem=10GB
%nosave
#b3lyp/svp scf=(tight,noincore) Test 
#IOP(5/87=12) Density=Current Pop=(MK,readradii) iop(6/33=2) iop(6/42=6)

loop2.cluster195 

   -2  1 
   C     39.83000000    45.40000000     2.12000000
   C     38.64000000    45.63000000     3.03000000
   O     38.46000000    46.75000000     3.50000000
   H     40.69500000    45.11400000     2.71900000
   H     39.59900000    44.60300000     1.41300000
   H     40.05400000    46.31700000     1.57500000
   N     37.61000000    44.82000000     3.32000000
   C     37.41000000    43.45000000     2.89000000
   C     36.56000000    42.77000000     3.96000000
   O     35.64000000    43.28000000     4.60000000
   C     36.71000000    43.36000000     1.53000000
   C     35.49000000    44.25000000     1.34000000
   O     35.23000000    44.57000000     0.16000000
   O     34.84000000    44.59000000     2.36000000
   H     36.98000000    45.14000000     4.03000000
   H     38.38000000    42.96000000     2.85000000
   H     36.39000000    42.34000000     1.31000000
   H     37.54000000    43.53000000     0.85000000
   N     36.93000000    41.51000000     4.19000000
   C     36.40000000    40.52000000     5.11000000
   C     35.01000000    40.01000000     4.75000000
   O     34.81000000    38.80000000     4.81000000
   C     36.53000000    40.96000000     6.57000000
   H     37.71000000    41.21000000     3.62000000
   H     37.03000000    39.64000000     5.05000000
   H     36.39000000    40.09000000     7.20000000
   H     37.56000000    41.33000000     6.62000000
   H     35.73000000    41.67000000     6.79000000
   N     34.11000000    40.87000000     4.28000000
   C     32.73000000    40.56000000     3.94000000
   C     32.25000000    41.45000000     2.80000000
   O     32.29000000    42.68000000     2.88000000
   C     31.73000000    40.55000000     5.09000000
   C     31.72000000    41.82000000     5.94000000
   O     32.40000000    42.84000000     5.67000000
   O     30.95000000    41.76000000     6.91000000
   H     34.47000000    41.81000000     4.19000000
   H     32.74000000    39.56000000     3.53000000
   H     32.07000000    39.74000000     5.74000000
   H     30.71000000    40.34000000     4.77000000
   N     31.64000000    40.81000000     1.81000000
   C     31.20000000    41.28000000     0.51000000
   C     30.12000000    42.35000000     0.43000000
   O     29.56000000    42.71000000    -0.60000000
   H     31.37000000    39.85000000     1.97000000
   H     30.78000000    40.48000000    -0.10000000
   H     32.07000000    41.71000000     0.00000000
   N     29.93000000    43.17000000     1.47000000
   C     28.90000000    44.17000000     1.64000000
   C     29.39000000    45.59000000     1.39000000
   O     28.96000000    46.51000000     2.07000000
   C     28.32000000    43.93000000     3.04000000
   C     29.31000000    44.01000000     4.19000000
   N     29.09000000    43.18000000     5.21000000
   O     30.30000000    44.74000000     4.29000000
   H     30.45000000    43.00000000     2.32000000
   H     28.18000000    44.05000000     0.83000000
   H     27.78000000    42.98000000     3.08000000
   H     27.54000000    44.68000000     3.17000000
   H     28.26000000    42.61000000     5.32000000
   H     29.72000000    43.33000000     5.98000000
   N     30.43000000    45.72000000     0.56000000
   C     31.31000000    46.86000000     0.44000000
   C     32.03000000    47.35000000     1.69000000
   O     32.25000000    46.57000000     2.62000000
   H     30.74000000    44.89000000     0.08000000
   H     30.76000000    47.72000000     0.05000000
   H     32.08000000    46.62000000    -0.29000000
   N     32.37000000    48.64000000     1.82000000
   C     32.00000000    49.71000000     0.92000000
   C     32.91000000    50.93000000     0.95000000
   O     32.77000000    51.83000000     0.12000000
   C     30.56000000    50.14000000     1.22000000
   C     30.31000000    50.88000000     2.53000000
   O     29.83000000    50.72000000     0.17000000
   H     32.77000000    48.86000000     2.71000000
   H     31.97000000    49.37000000    -0.11000000
   H     29.91000000    49.27000000     1.35000000
   H     28.93000000    50.45000000     0.39000000
   H     30.82000000    50.31000000     3.31000000
   H     30.68000000    51.89000000     2.39000000
   H     29.24000000    51.03000000     2.67000000
   N     33.95000000    50.88000000     1.79000000
   C     34.81000000    52.02000000     2.02000000
   C     34.17000000    53.40000000     2.15000000
   O     34.13000000    54.18000000     1.20000000
   C     35.93000000    52.02000000     0.98000000
   C     36.42000000    50.63000000     0.57000000
   C     37.06000000    52.89000000     1.51000000
   C     37.45000000    50.65000000    -0.55000000
   H     34.08000000    50.00000000     2.26000000
   H     35.27000000    51.78000000     2.98000000
   H     35.48000000    52.40000000     0.06000000
   H     35.59000000    50.10000000     0.09000000
   H     36.66000000    49.98000000     1.42000000
   H     36.66000000    53.82000000     1.93000000
   H     37.71000000    52.47000000     2.28000000
   H     37.70000000    53.14000000     0.66000000
   H     37.67000000    49.65000000    -0.94000000
   H     37.15000000    51.32000000    -1.35000000
   H     38.35000000    51.02000000    -0.06000000
   N     33.43000000    53.71000000     3.21000000
   C     33.27000000    52.88000000     4.39000000
   C     34.45000000    52.62000000     5.31000000
   O     34.66000000    51.49000000     5.74000000
   C     32.09000000    53.34000000     5.25000000
   C     32.00000000    54.80000000     5.66000000
   O     31.27000000    55.11000000     6.62000000
   O     32.67000000    55.69000000     5.09000000
   H     32.91000000    54.57000000     3.20000000
   H     33.02000000    51.88000000     4.06000000
   H     32.03000000    52.65000000     6.09000000
   H     31.20000000    53.11000000     4.66000000
   N     35.34000000    53.60000000     5.47000000
   C     36.61000000    53.38000000     6.14000000
   C     36.45000000    52.95000000     7.59000000
   O     35.38000000    53.28000000     8.10000000
   C     37.55000000    54.57000000     6.05000000
   C     37.09000000    55.88000000     6.64000000
   C     36.53000000    56.86000000     5.82000000
   C     37.34000000    56.28000000     7.96000000
   C     36.50000000    58.22000000     6.15000000
   C     37.28000000    57.64000000     8.31000000
   C     36.81000000    58.63000000     7.45000000
   H     35.19000000    54.51000000     5.06000000
   H     37.05000000    52.51000000     5.65000000
   H     37.82000000    54.75000000     5.00000000
   H     38.57000000    54.35000000     6.38000000
   H     36.21000000    56.56000000     4.83000000
   H     37.80000000    55.63000000     8.69000000
   H     36.16000000    59.00000000     5.48000000
   H     37.57000000    57.89000000     9.32000000
   H     36.88000000    59.66000000     7.78000000
   N     37.36000000    52.29000000     8.31000000
   C     38.62000000    51.72000000     7.89000000
   C     38.54000000    50.49000000     6.99000000
   O     37.49000000    50.19000000     6.44000000
   C     39.37000000    51.51000000     9.20000000
   C     38.28000000    51.08000000    10.19000000
   C     37.16000000    52.00000000     9.72000000
   H     39.19000000    52.51000000     7.41000000
   H     40.18000000    50.79000000     9.29000000
   H     39.73000000    52.50000000     9.49000000
   H     38.03000000    50.04000000     9.99000000
   H     38.55000000    51.23000000    11.24000000
   H     36.14000000    51.68000000     9.94000000
   H     37.28000000    52.97000000    10.19000000
   N     39.70000000    49.85000000     6.78000000
   C     39.90000000    48.60000000     6.08000000
   C     41.24000000    48.31000000     5.41000000
   O     41.80000000    47.22000000     5.55000000
   C     39.52000000    47.51000000     7.07000000
   C     40.51000000    47.44000000     8.23000000
   C     39.87000000    46.57000000     9.30000000
   O     39.52000000    47.11000000    10.37000000
   O     39.65000000    45.37000000     9.05000000
   H     40.57000000    50.21000000     7.13000000
   H     39.18000000    48.66000000     5.27000000
   H     39.47000000    46.54000000     6.59000000
   H     38.53000000    47.78000000     7.44000000
   H     40.68000000    48.42000000     8.66000000
   H     41.45000000    46.98000000     7.94000000
   N     41.87000000    49.13000000     4.56000000
   C     41.76000000    50.57000000     4.46000000
   H     40.87000000    50.90400000     4.99400000
   H     42.64300000    51.03400000     4.90100000
   H     41.68300000    50.85700000     3.41100000
   H     42.58000000    48.75000000     3.95000000
  Ca     33.11000000    44.80000000     4.33000000
   O     35.02000000    46.43000000     5.39000000
   H     35.70000000    47.05000000     5.14000000
   H     34.70000000    46.77000000     6.23000000
   O     32.19000000    46.22000000     6.39000000
   H     31.52000000    46.80000000     6.76000000
   H     32.45000000    45.66000000     7.12000000

Ca 1.70



