%chk=loop2.cluster42.chk
%nprocshared=48
%mem=10GB
%nosave
#b3lyp/svp scf=(tight,noincore) Test 
#IOP(5/87=12) Density=Current Pop=(MK,readradii) iop(6/33=2) iop(6/42=6)

loop2.cluster42 

   -2  1 
   C     64.13000000    37.36000000   -19.51100000
   C     64.40000000    36.25000000   -20.52100000
   O     65.41000000    35.58000000   -20.32100000
   H     63.10700000    37.27600000   -19.14400000
   H     64.82400000    37.26800000   -18.67500000
   H     64.26400000    38.32900000   -19.99100000
   N     63.66000000    36.15000000   -21.63100000
   C     63.84000000    35.12000000   -22.63100000
   C     65.06000000    35.47000000   -23.46100000
   O     64.92000000    36.33000000   -24.33100000
   C     62.53000000    34.90000000   -23.38100000
   C     62.43000000    33.79000000   -24.41100000
   O     61.38000000    33.85000000   -25.09100000
   O     63.22000000    32.83000000   -24.51100000
   H     62.81000000    36.70000000   -21.68100000
   H     64.00000000    34.18000000   -22.10100000
   H     62.31000000    35.78000000   -23.97100000
   H     61.77000000    34.83000000   -22.59100000
   N     66.22000000    34.88000000   -23.16100000
   C     67.58000000    35.27000000   -23.49100000
   C     67.98000000    34.72000000   -24.85100000
   O     68.96000000    35.16000000   -25.45100000
   C     68.50000000    34.73000000   -22.41100000
   H     66.29000000    34.18000000   -22.44100000
   H     67.79000000    36.34000000   -23.42100000
   H     68.07000000    34.87000000   -21.42100000
   H     68.66000000    33.67000000   -22.63100000
   H     69.55000000    35.02000000   -22.41100000
   N     67.16000000    33.85000000   -25.45100000
   C     67.30000000    33.22000000   -26.75100000
   C     65.97000000    33.36000000   -27.48100000
   O     65.88000000    32.84000000   -28.59100000
   C     67.77000000    31.77000000   -26.73100000
   C     66.88000000    30.74000000   -26.04100000
   O     67.04000000    29.52000000   -26.24100000
   O     65.94000000    31.08000000   -25.28100000
   H     66.39000000    33.56000000   -24.85100000
   H     68.05000000    33.70000000   -27.38100000
   H     68.72000000    31.78000000   -26.21100000
   H     68.02000000    31.45000000   -27.74100000
   N     64.99000000    34.12000000   -26.99100000
   C     64.02000000    34.75000000   -27.87100000
   C     62.89000000    33.86000000   -28.34100000
   O     62.09000000    34.25000000   -29.19100000
   H     65.07000000    34.39000000   -26.02100000
   H     64.51000000    35.21000000   -28.73100000
   H     63.50000000    35.51000000   -27.28100000
   N     62.90000000    32.62000000   -27.85100000
   C     62.21000000    31.44000000   -28.35100000
   C     60.75000000    31.31000000   -27.93100000
   O     59.99000000    30.55000000   -28.51100000
   C     62.96000000    30.13000000   -28.14100000
   C     62.62000000    29.41000000   -26.84100000
   N     62.31000000    28.12000000   -27.01100000
   O     62.63000000    29.98000000   -25.76100000
   H     63.59000000    32.37000000   -27.16100000
   H     62.17000000    31.68000000   -29.41100000
   H     64.04000000    30.29000000   -28.19100000
   H     62.68000000    29.55000000   -29.02100000
   H     62.63000000    27.59000000   -27.80100000
   H     62.02000000    27.67000000   -26.16100000
   N     60.22000000    32.14000000   -27.03100000
   C     58.80000000    32.16000000   -26.70100000
   C     58.36000000    31.41000000   -25.45100000
   O     57.19000000    31.44000000   -25.09100000
   H     60.72000000    32.86000000   -26.52100000
   H     58.17000000    31.75000000   -27.49100000
   H     58.44000000    33.17000000   -26.55100000
   N     59.29000000    30.69000000   -24.81100000
   C     59.21000000    30.04000000   -23.52100000
   C     60.36000000    30.28000000   -22.55100000
   O     61.53000000    30.51000000   -22.82100000
   C     59.05000000    28.54000000   -23.75100000
   C     57.63000000    28.12000000   -24.10100000
   O     59.91000000    28.00000000   -24.72100000
   H     60.19000000    30.78000000   -25.25100000
   H     58.29000000    30.40000000   -23.05100000
   H     59.27000000    28.02000000   -22.81100000
   H     60.71000000    27.71000000   -24.28100000
   H     57.51000000    27.03000000   -24.08100000
   H     56.98000000    28.48000000   -23.31100000
   H     57.23000000    28.52000000   -25.04100000
   N     59.99000000    30.49000000   -21.29100000
   C     60.83000000    30.76000000   -20.14100000
   C     61.37000000    29.44000000   -19.60100000
   O     60.70000000    28.49000000   -19.22100000
   C     60.16000000    31.59000000   -19.04100000
   C     59.80000000    32.95000000   -19.62100000
   C     61.03000000    31.89000000   -17.82100000
   C     58.56000000    33.56000000   -18.98100000
   H     58.99000000    30.53000000   -21.13100000
   H     61.72000000    31.29000000   -20.48100000
   H     59.23000000    31.07000000   -18.80100000
   H     59.45000000    32.90000000   -20.65100000
   H     60.64000000    33.64000000   -19.59100000
   H     61.28000000    30.96000000   -17.32100000
   H     61.94000000    32.28000000   -18.27100000
   H     60.73000000    32.58000000   -17.03100000
   H     57.76000000    32.82000000   -19.03100000
   H     58.85000000    33.77000000   -17.95100000
   H     58.26000000    34.45000000   -19.52100000
   N     62.69000000    29.45000000   -19.38100000
   C     63.57000000    28.37000000   -18.99100000
   C     63.96000000    28.40000000   -17.52100000
   O     64.08000000    29.52000000   -17.01100000
   C     64.85000000    28.36000000   -19.82100000
   C     64.76000000    28.76000000   -21.29100000
   O     63.66000000    28.72000000   -21.88100000
   O     65.77000000    29.13000000   -21.93100000
   H     63.01000000    30.40000000   -19.50100000
   H     63.04000000    27.44000000   -19.19100000
   H     65.35000000    27.40000000   -19.69100000
   H     65.55000000    29.03000000   -19.33100000
   N     64.44000000    27.33000000   -16.88100000
   C     64.88000000    27.54000000   -15.52100000
   C     66.05000000    28.50000000   -15.35100000
   O     66.05000000    29.17000000   -14.32100000
   C     65.13000000    26.17000000   -14.89100000
   C     65.36000000    26.19000000   -13.39100000
   C     66.65000000    26.12000000   -12.86100000
   C     64.28000000    26.35000000   -12.52100000
   C     66.87000000    26.17000000   -11.47100000
   C     64.49000000    26.45000000   -11.14100000
   C     65.78000000    26.36000000   -10.61100000
   H     64.28000000    26.42000000   -17.29100000
   H     64.02000000    27.98000000   -15.01100000
   H     65.91000000    25.63000000   -15.42100000
   H     64.28000000    25.52000000   -15.12100000
   H     67.49000000    26.02000000   -13.54100000
   H     63.26000000    26.44000000   -12.87100000
   H     67.87000000    25.96000000   -11.10100000
   H     63.65000000    26.61000000   -10.47100000
   H     65.90000000    26.46000000    -9.54100000
   N     67.03000000    28.65000000   -16.24100000
   C     68.03000000    29.70000000   -16.16100000
   C     67.61000000    31.10000000   -16.59100000
   O     68.43000000    32.01000000   -16.49100000
   C     69.18000000    29.19000000   -17.02100000
   C     68.53000000    28.25000000   -18.03100000
   C     67.45000000    27.61000000   -17.16100000
   H     68.33000000    29.82000000   -15.12100000
   H     69.72000000    30.01000000   -17.49100000
   H     69.86000000    28.63000000   -16.37100000
   H     68.20000000    28.95000000   -18.79100000
   H     69.27000000    27.52000000   -18.36100000
   H     66.68000000    27.27000000   -17.86100000
   H     67.86000000    26.76000000   -16.62100000
   N     66.34000000    31.26000000   -16.97100000
   C     65.66000000    32.52000000   -17.20100000
   C     64.65000000    32.93000000   -16.13100000
   O     64.65000000    34.07000000   -15.69100000
   C     64.87000000    32.43000000   -18.50100000
   C     65.77000000    32.26000000   -19.72100000
   C     65.01000000    32.01000000   -21.02100000
   O     65.64000000    32.11000000   -22.10100000
   O     63.83000000    31.62000000   -21.03100000
   H     65.76000000    30.43000000   -16.98100000
   H     66.47000000    33.24000000   -17.12100000
   H     64.27000000    33.34000000   -18.58100000
   H     64.08000000    31.68000000   -18.47100000
   H     66.49000000    31.44000000   -19.64100000
   H     66.39000000    33.15000000   -19.78100000
   N     63.89000000    31.98000000   -15.58100000
   C     63.22000000    32.04000000   -14.29100000
   H     62.21300000    31.63400000   -14.38600000
   H     63.78000000    31.45400000   -13.56200000
   H     63.16300000    33.07600000   -13.95800000
   H     63.82000000    31.08000000   -16.04100000
  Ca     64.16000000    30.64000000   -23.56100000
   O     64.96000000    28.25000000   -24.77100000
   H     65.16000000    27.33000000   -24.96100000
   H     65.59000000    28.74000000   -25.30100000

Ca 1.70



