%chk=loop1.cluster103.chk
%nprocshared=48
%mem=10GB
%nosave
#b3lyp/svp scf=(tight,noincore) Test 
#IOP(5/87=12) Density=Current Pop=(MK,readradii) iop(6/33=2) iop(6/42=6)

loop1.cluster103 

   0  1 
   C     79.97000000    81.91000000    86.08000000
   C     81.38000000    82.48000000    86.14000000
   O     81.59000000    83.65000000    85.83000000
   H     79.30100000    82.64300000    85.62900000
   H     79.97000000    81.00100000    85.47800000
   H     79.62800000    81.67900000    87.08900000
   N     82.35000000    81.57000000    86.26000000
   C     83.73000000    81.99000000    86.44000000
   C     84.45000000    82.02000000    85.11000000
   O     85.63000000    82.39000000    85.11000000
   C     84.44000000    81.04000000    87.40000000
   C     84.40000000    79.56000000    87.06000000
   O     85.39000000    78.85000000    86.79000000
   O     83.28000000    79.02000000    87.22000000
   H     82.03000000    80.62000000    86.32000000
   H     83.71000000    82.98000000    86.90000000
   H     84.03000000    81.20000000    88.40000000
   H     85.47000000    81.40000000    87.39000000
   N     83.82000000    81.68000000    83.98000000
   C     84.45000000    81.48000000    82.69000000
   C     84.57000000    82.74000000    81.84000000
   O     83.54000000    83.34000000    81.55000000
   C     83.95000000    80.29000000    81.89000000
   C     83.99000000    78.91000000    82.56000000
   C     85.35000000    78.50000000    83.12000000
   C     85.37000000    77.10000000    83.72000000
   N     84.49000000    77.00000000    84.90000000
   H     82.90000000    81.33000000    84.17000000
   H     85.46000000    81.15000000    82.93000000
   H     84.56000000    80.16000000    81.00000000
   H     82.94000000    80.54000000    81.55000000
   H     83.62000000    78.15000000    81.88000000
   H     83.23000000    78.82000000    83.33000000
   H     85.75000000    79.20000000    83.85000000
   H     86.04000000    78.38000000    82.28000000
   H     86.36000000    76.79000000    84.05000000
   H     85.11000000    76.35000000    82.97000000
   H     84.58000000    76.11000000    85.36000000
   H     84.72000000    77.67000000    85.62000000
   H     83.53000000    76.99000000    84.59000000
   N     85.72000000    83.21000000    81.34000000
   C     87.05000000    82.83000000    81.77000000
   C     88.01000000    83.96000000    81.45000000
   O     88.76000000    83.98000000    80.47000000
   C     87.47000000    81.54000000    81.05000000
   C     88.88000000    81.05000000    81.34000000
   O     89.38000000    80.01000000    80.86000000
   O     89.59000000    81.67000000    82.16000000
   H     85.64000000    83.89000000    80.60000000
   H     87.15000000    82.57000000    82.82000000
   H     87.41000000    81.76000000    79.99000000
   H     86.79000000    80.71000000    81.25000000
   N     88.21000000    84.97000000    82.30000000
   C     87.47000000    85.17000000    83.54000000
   C     87.11000000    86.57000000    83.99000000
   O     87.99000000    87.42000000    83.95000000
   H     88.93000000    85.64000000    82.07000000
   H     88.04000000    84.63000000    84.29000000
   H     86.59000000    84.53000000    83.55000000
   N     85.91000000    86.87000000    84.51000000
   C     84.89000000    85.93000000    84.94000000
   C     84.33000000    86.34000000    86.29000000
   O     84.90000000    87.17000000    87.00000000
   C     83.97000000    85.48000000    83.80000000
   C     83.07000000    86.55000000    83.20000000
   O     82.98000000    86.67000000    81.96000000
   O     82.58000000    87.35000000    84.03000000
   H     85.83000000    87.80000000    84.89000000
   H     85.38000000    84.99000000    85.20000000
   H     83.33000000    84.77000000    84.33000000
   H     84.61000000    85.04000000    83.04000000
   N     83.21000000    85.75000000    86.70000000
   C     82.44000000    86.02000000    87.90000000
   C     81.16000000    86.80000000    87.62000000
   O     80.35000000    86.86000000    88.54000000
   H     82.78000000    85.04000000    86.12000000
   H     83.11000000    86.55000000    88.58000000
   H     82.21000000    85.08000000    88.40000000
   N     80.90000000    87.25000000    86.39000000
   C     79.79000000    88.09000000    86.00000000
   C     78.77000000    87.35000000    85.15000000
   O     79.06000000    86.53000000    84.28000000
   C     80.36000000    89.34000000    85.33000000
   C     79.37000000    90.51000000    85.37000000
   O     80.70000000    89.12000000    83.98000000
   H     81.57000000    87.14000000    85.65000000
   H     79.28000000    88.33000000    86.93000000
   H     81.19000000    89.68000000    85.95000000
   H     81.41000000    88.48000000    84.06000000
   H     79.77000000    91.36000000    84.82000000
   H     78.33000000    90.30000000    85.12000000
   H     79.30000000    90.91000000    86.38000000
   N     77.52000000    87.79000000    85.34000000
   C     76.34000000    87.17000000    84.75000000
   C     75.43000000    88.21000000    84.10000000
   O     74.98000000    89.12000000    84.79000000
   C     75.53000000    86.24000000    85.65000000
   C     74.32000000    85.56000000    85.02000000
   C     75.15000000    86.78000000    87.02000000
   C     74.71000000    84.70000000    83.82000000
   H     77.25000000    88.40000000    86.09000000
   H     76.68000000    86.55000000    83.93000000
   H     76.30000000    85.50000000    85.85000000
   H     73.56000000    86.25000000    84.66000000
   H     73.95000000    84.93000000    85.83000000
   H     74.61000000    86.06000000    87.63000000
   H     76.02000000    87.10000000    87.61000000
   H     74.53000000    87.67000000    86.92000000
   H     75.77000000    84.46000000    83.86000000
   H     74.14000000    83.77000000    83.83000000
   H     74.62000000    85.24000000    82.87000000
   N     75.10000000    88.03000000    82.82000000
   C     74.32000000    88.99000000    82.06000000
   C     73.40000000    88.30000000    81.07000000
   O     72.30000000    88.81000000    80.91000000
   C     75.30000000    89.95000000    81.39000000
   C     74.82000000    91.09000000    80.51000000
   O     76.36000000    89.34000000    80.69000000
   H     75.74000000    87.41000000    82.35000000
   H     73.67000000    89.50000000    82.77000000
   H     75.81000000    90.42000000    82.23000000
   H     77.15000000    89.40000000    81.23000000
   H     73.93000000    91.60000000    80.89000000
   H     75.55000000    91.90000000    80.57000000
   H     74.69000000    90.77000000    79.48000000
   N     73.73000000    87.20000000    80.39000000
   C     73.29000000    86.81000000    79.06000000
   C     73.67000000    87.83000000    77.99000000
   O     73.36000000    89.01000000    78.12000000
   C     71.80000000    86.53000000    78.94000000
   C     71.29000000    85.55000000    79.99000000
   O     71.55000000    85.89000000    77.71000000
   H     74.48000000    86.67000000    80.81000000
   H     73.84000000    85.93000000    78.72000000
   H     71.19000000    87.44000000    79.00000000
   H     71.56000000    84.94000000    77.84000000
   H     71.38000000    85.89000000    81.02000000
   H     70.24000000    85.31000000    79.80000000
   H     71.68000000    84.54000000    79.86000000
   N     74.02000000    87.27000000    76.83000000
   C     74.32000000    87.93000000    75.58000000
   C     75.60000000    87.62000000    74.81000000
   O     75.97000000    88.49000000    74.02000000
   C     73.06000000    87.72000000    74.75000000
   C     72.13000000    88.87000000    74.36000000
   C     71.35000000    89.57000000    75.47000000
   C     70.41000000    90.68000000    75.01000000
   N     69.49000000    91.15000000    76.06000000
   H     74.21000000    86.29000000    76.96000000
   H     74.37000000    89.02000000    75.59000000
   H     72.55000000    86.79000000    74.99000000
   H     73.47000000    87.48000000    73.77000000
   H     71.47000000    88.57000000    73.55000000
   H     72.77000000    89.67000000    73.98000000
   H     72.02000000    89.99000000    76.21000000
   H     70.76000000    88.82000000    76.00000000
   H     69.79000000    90.22000000    74.24000000
   H     70.91000000    91.50000000    74.49000000
   H     68.87000000    91.87000000    75.70000000
   H     68.83000000    90.42000000    76.27000000
   H     69.96000000    91.60000000    76.84000000
   N     76.22000000    86.45000000    74.71000000
   C     76.19000000    85.26000000    75.55000000
   C     74.85000000    84.56000000    75.69000000
   O     74.37000000    84.16000000    76.74000000
   C     76.92000000    85.44000000    76.88000000
   C     78.39000000    85.81000000    76.86000000
   C     78.93000000    86.04000000    78.27000000
   O     79.66000000    85.19000000    78.82000000
   O     78.59000000    87.05000000    78.93000000
   H     77.00000000    86.54000000    74.09000000
   H     76.81000000    84.54000000    75.01000000
   H     76.75000000    84.58000000    77.54000000
   H     76.49000000    86.27000000    77.44000000
   H     78.64000000    86.74000000    76.35000000
   H     78.89000000    85.04000000    76.27000000
   N     74.28000000    84.45000000    74.48000000
   C     73.00000000    83.81000000    74.28000000
   H     72.27300000    84.54900000    73.94300000
   H     73.09800000    83.02800000    73.52700000
   H     72.66200000    83.37100000    75.21900000
   H     74.74000000    84.76000000    73.64000000
  Ca     81.60000000    84.98000000    80.50000000
   O     82.78000000    86.24000000    78.46000000
   H     83.26000000    85.79000000    77.76000000
   H     82.49000000    87.06000000    78.07000000
   O     82.33000000    83.18000000    78.53000000
   H     83.13000000    82.68000000    78.35000000
   H     81.89000000    83.25000000    77.69000000
   O     80.70000000    82.60000000    81.35000000
   H     81.08000000    82.19000000    82.13000000
   H     80.75000000    81.92000000    80.68000000
   O     80.77000000    84.85000000    83.23000000
   H     81.09000000    84.46000000    84.05000000
   H     80.26000000    85.61000000    83.52000000
   O     79.76000000    86.93000000    81.19000000
   H     79.59000000    87.72000000    81.71000000
   H     79.28000000    87.07000000    80.37000000

Ca 1.70



