%chk=loop1.cluster101.chk
%nprocshared=48
%mem=10GB
%nosave
#b3lyp/svp scf=(tight,noincore) Test 
#IOP(5/87=12) Density=Current Pop=(MK,readradii) iop(6/33=2) iop(6/42=6)

loop1.cluster101 

   0  1 
   C     35.71000000    86.41000000   122.00000000
   C     36.35000000    85.75000000   123.22000000
   O     36.79000000    84.61000000   123.17000000
   H     34.81000000    86.94300000   122.30600000
   H     36.41400000    87.11300000   121.55500000
   H     35.44800000    85.64600000   121.26900000
   N     36.45000000    86.59000000   124.26000000
   C     37.13000000    86.23000000   125.49000000
   C     36.13000000    85.77000000   126.54000000
   O     36.44000000    85.89000000   127.72000000
   C     37.95000000    87.39000000   126.04000000
   C     37.11000000    88.66000000   126.18000000
   O     36.94000000    89.20000000   127.29000000
   O     36.74000000    89.30000000   125.18000000
   H     36.07000000    87.53000000   124.21000000
   H     37.88000000    85.49000000   125.22000000
   H     38.72000000    87.56000000   125.29000000
   H     38.49000000    87.20000000   126.97000000
   N     34.98000000    85.21000000   126.15000000
   C     33.80000000    85.04000000   126.97000000
   C     32.93000000    83.83000000   126.64000000
   O     31.98000000    83.93000000   125.86000000
   C     33.00000000    86.34000000   126.86000000
   C     33.79000000    87.61000000   127.13000000
   C     33.01000000    88.87000000   127.52000000
   C     33.92000000    90.09000000   127.65000000
   N     34.55000000    90.54000000   126.41000000
   H     34.93000000    85.00000000   125.16000000
   H     34.10000000    84.91000000   128.00000000
   H     32.13000000    86.20000000   127.50000000
   H     32.64000000    86.47000000   125.84000000
   H     34.33000000    87.90000000   126.23000000
   H     34.46000000    87.36000000   127.96000000
   H     32.54000000    88.72000000   128.49000000
   H     32.34000000    89.09000000   126.69000000
   H     34.78000000    89.89000000   128.28000000
   H     33.32000000    90.89000000   128.11000000
   H     34.43000000    91.54000000   126.32000000
   H     35.54000000    90.33000000   126.36000000
   H     34.08000000    90.15000000   125.61000000
   N     33.15000000    82.64000000   127.21000000
   C     33.87000000    82.24000000   128.40000000
   C     33.44000000    82.92000000   129.69000000
   O     32.59000000    83.81000000   129.72000000
   C     35.36000000    82.14000000   128.08000000
   C     35.67000000    81.42000000   126.77000000
   O     36.53000000    81.94000000   126.02000000
   O     35.23000000    80.27000000   126.57000000
   H     32.45000000    81.98000000   126.90000000
   H     33.60000000    81.20000000   128.59000000
   H     35.92000000    81.75000000   128.92000000
   H     35.68000000    83.18000000   128.01000000
   N     33.75000000    82.48000000   130.92000000
   C     34.90000000    81.72000000   131.35000000
   C     36.15000000    82.57000000   131.48000000
   O     36.14000000    83.80000000   131.55000000
   H     33.09000000    82.67000000   131.66000000
   H     35.00000000    80.96000000   130.58000000
   H     34.64000000    81.21000000   132.28000000
   N     37.35000000    81.99000000   131.57000000
   C     37.59000000    80.56000000   131.65000000
   C     38.93000000    80.21000000   131.02000000
   O     39.74000000    81.11000000   130.86000000
   C     37.56000000    80.08000000   133.09000000
   C     37.49000000    78.56000000   133.15000000
   O     36.41000000    77.98000000   132.92000000
   O     38.56000000    77.99000000   133.46000000
   H     38.10000000    82.67000000   131.57000000
   H     36.84000000    80.02000000   131.07000000
   H     36.63000000    80.45000000   133.53000000
   H     38.38000000    80.46000000   133.70000000
   N     39.07000000    78.99000000   130.49000000
   C     40.18000000    78.63000000   129.63000000
   C     40.16000000    79.35000000   128.29000000
   O     39.27000000    80.10000000   127.89000000
   H     38.47000000    78.23000000   130.76000000
   H     40.26000000    77.56000000   129.43000000
   H     41.14000000    78.82000000   130.11000000
   N     41.19000000    78.99000000   127.52000000
   C     41.56000000    79.58000000   126.25000000
   C     40.70000000    79.18000000   125.06000000
   O     40.36000000    78.01000000   124.87000000
   C     43.03000000    79.46000000   125.88000000
   C     43.54000000    78.03000000   125.74000000
   O     43.78000000    80.18000000   126.83000000
   H     41.89000000    78.40000000   127.92000000
   H     41.37000000    80.66000000   126.29000000
   H     43.20000000    79.94000000   124.91000000
   H     44.72000000    80.07000000   126.63000000
   H     43.16000000    77.73000000   124.77000000
   H     44.62000000    77.99000000   125.57000000
   H     43.23000000    77.39000000   126.57000000
   N     40.48000000    80.15000000   124.16000000
   C     39.87000000    79.87000000   122.88000000
   C     40.87000000    79.18000000   121.96000000
   O     42.02000000    79.56000000   121.77000000
   C     39.37000000    81.19000000   122.29000000
   C     38.62000000    80.95000000   120.98000000
   C     40.37000000    82.33000000   122.24000000
   C     37.82000000    82.18000000   120.57000000
   H     40.63000000    81.09000000   124.48000000
   H     39.04000000    79.17000000   122.98000000
   H     38.61000000    81.55000000   122.98000000
   H     38.04000000    80.03000000   121.04000000
   H     39.33000000    80.83000000   120.16000000
   H     41.24000000    82.02000000   121.65000000
   H     39.96000000    83.29000000   121.91000000
   H     40.69000000    82.56000000   123.25000000
   H     38.50000000    82.82000000   120.01000000
   H     37.03000000    81.87000000   119.89000000
   H     37.35000000    82.69000000   121.41000000
   N     40.38000000    78.10000000   121.36000000
   C     41.06000000    77.51000000   120.22000000
   C     40.05000000    76.99000000   119.20000000
   O     40.50000000    76.28000000   118.31000000
   C     42.05000000    76.45000000   120.70000000
   C     41.51000000    75.32000000   121.57000000
   O     43.18000000    76.99000000   121.35000000
   H     39.46000000    77.73000000   121.55000000
   H     41.65000000    78.25000000   119.68000000
   H     42.45000000    75.88000000   119.86000000
   H     43.16000000    77.92000000   121.10000000
   H     40.65000000    74.81000000   121.15000000
   H     42.34000000    74.66000000   121.82000000
   H     41.18000000    75.80000000   122.49000000
   N     38.73000000    77.17000000   119.28000000
   C     37.67000000    76.58000000   118.50000000
   C     37.65000000    75.06000000   118.61000000
   O     38.45000000    74.38000000   119.24000000
   C     37.83000000    77.02000000   117.05000000
   C     37.83000000    78.55000000   116.96000000
   O     36.63000000    76.74000000   116.37000000
   H     38.47000000    77.86000000   119.97000000
   H     36.72000000    76.95000000   118.88000000
   H     38.72000000    76.67000000   116.53000000
   H     36.64000000    77.12000000   115.49000000
   H     37.64000000    78.84000000   115.93000000
   H     37.05000000    78.98000000   117.57000000
   H     38.80000000    78.98000000   117.21000000
   N     36.58000000    74.48000000   118.06000000
   C     36.44000000    73.05000000   117.89000000
   C     35.43000000    72.37000000   118.81000000
   O     35.62000000    71.17000000   118.94000000
   C     36.31000000    72.64000000   116.43000000
   C     37.64000000    72.64000000   115.69000000
   C     37.57000000    71.66000000   114.51000000
   C     38.97000000    71.67000000   113.90000000
   N     39.29000000    72.98000000   113.31000000
   H     35.92000000    75.11000000   117.63000000
   H     37.39000000    72.59000000   118.17000000
   H     35.75000000    73.36000000   115.84000000
   H     35.84000000    71.66000000   116.36000000
   H     38.43000000    72.41000000   116.41000000
   H     37.76000000    73.65000000   115.29000000
   H     36.75000000    71.83000000   113.81000000
   H     37.41000000    70.66000000   114.91000000
   H     39.15000000    70.88000000   113.17000000
   H     39.72000000    71.48000000   114.67000000
   H     38.60000000    73.30000000   112.65000000
   H     39.40000000    73.75000000   113.95000000
   H     40.21000000    72.98000000   112.90000000
   N     34.43000000    72.94000000   119.49000000
   C     33.94000000    74.30000000   119.63000000
   C     33.76000000    75.07000000   118.33000000
   O     34.03000000    76.25000000   118.11000000
   C     34.82000000    75.00000000   120.66000000
   C     34.64000000    74.47000000   122.08000000
   C     35.49000000    75.29000000   123.04000000
   O     36.68000000    74.99000000   123.28000000
   O     35.02000000    76.36000000   123.46000000
   H     33.95000000    72.30000000   120.11000000
   H     32.94000000    74.16000000   120.04000000
   H     34.48000000    76.03000000   120.68000000
   H     35.90000000    75.09000000   120.48000000
   H     34.99000000    73.44000000   122.18000000
   H     33.60000000    74.38000000   122.39000000
   N     33.21000000    74.34000000   117.36000000
   C     32.73000000    74.84000000   116.08000000
   H     31.85200000    75.46600000   116.24100000
   H     33.51300000    75.42900000   115.60300000
   H     32.46400000    74.00000000   115.43800000
   H     32.79000000    73.45000000   117.59000000
  Ca     35.50000000    77.80000000   125.72300000
   O     33.48000000    79.27000000   124.33300000
   H     33.32000000    80.21000000   124.40300000
   H     32.65000000    78.90000000   124.05300000
   O     37.12000000    79.78000000   124.40300000
   H     36.77000000    80.14000000   123.59300000
   H     37.08000000    80.51000000   125.02300000
   O     34.44000000    78.64000000   128.41300000
   H     34.52000000    79.30000000   127.72300000
   H     33.53000000    78.71000000   128.70300000
   O     35.46000000    75.65000000   127.89300000
   H     34.77000000    74.99000000   127.92300000
   H     36.23000000    75.21000000   128.23300000
   O     37.92000000    76.67000000   124.93300000
   H     38.69000000    77.17000000   124.62300000
   H     37.80000000    75.99000000   124.27300000
   O     37.37000000    78.30000000   127.60300000
   H     37.17000000    77.86000000   128.42300000
   H     37.82000000    79.10000000   127.86300000
   O     33.12000000    76.85000000   126.30300000
   H     32.54000000    76.55000000   125.60300000
   H     32.63000000    76.71000000   127.10300000

Ca 1.70



