%chk=loop2.cluster93.chk
%nprocshared=48
%mem=10GB
%nosave
#b3lyp/svp scf=(tight,noincore) Test 
#IOP(5/87=12) Density=Current Pop=(MK,readradii) iop(6/33=2) iop(6/42=6)

loop2.cluster93 

   -2  1 
   C     83.41000000    78.13000000     8.31000000
   C     82.80000000    76.73000000     8.44000000
   O     83.16000000    76.04000000     9.39000000
   H     84.37800000    78.05900000     7.81300000
   H     82.74600000    78.76300000     7.72200000
   H     83.54200000    78.56300000     9.30200000
   N     81.86000000    76.26000000     7.62000000
   C     81.29000000    76.86000000     6.43000000
   C     81.59000000    76.14000000     5.12000000
   O     81.97000000    74.98000000     5.16000000
   C     79.78000000    76.94000000     6.65000000
   C     79.17000000    75.72000000     7.33000000
   O     79.76000000    74.63000000     7.51000000
   O     78.00000000    75.81000000     7.74000000
   H     81.48000000    75.37000000     7.91000000
   H     81.58000000    77.91000000     6.43000000
   H     79.15000000    77.09000000     5.78000000
   H     79.60000000    77.78000000     7.32000000
   N     81.47000000    76.92000000     4.04000000
   C     81.25000000    76.45000000     2.69000000
   C     79.93000000    75.77000000     2.37000000
   O     79.26000000    76.12000000     1.40000000
   C     82.50000000    75.73000000     2.19000000
   H     81.19000000    77.88000000     4.19000000
   H     81.15000000    77.38000000     2.13000000
   H     82.28000000    74.78000000     1.70000000
   H     82.89000000    76.33000000     1.36000000
   H     83.28000000    75.50000000     2.91000000
   N     79.51000000    74.72000000     3.09000000
   C     78.36000000    73.86000000     2.91000000
   C     77.82000000    73.18000000     4.16000000
   O     78.50000000    73.16000000     5.19000000
   C     78.65000000    72.78000000     1.88000000
   C     80.08000000    72.35000000     1.57000000
   O     80.42000000    71.95000000     0.43000000
   O     80.91000000    72.41000000     2.50000000
   H     80.15000000    74.37000000     3.78000000
   H     77.56000000    74.45000000     2.46000000
   H     78.17000000    73.19000000     0.99000000
   H     78.17000000    71.82000000     2.09000000
   N     76.58000000    72.69000000     4.17000000
   C     75.93000000    72.13000000     5.34000000
   C     74.93000000    71.00000000     5.09000000
   O     74.82000000    70.55000000     3.95000000
   H     76.03000000    72.80000000     3.33000000
   H     75.31000000    72.92000000     5.77000000
   H     76.65000000    71.84000000     6.10000000
   N     74.30000000    70.55000000     6.17000000
   C     73.29000000    69.52000000     6.11000000
   C     72.17000000    69.71000000     7.12000000
   O     72.50000000    70.02000000     8.27000000
   C     74.06000000    68.23000000     6.38000000
   C     73.23000000    66.96000000     6.21000000
   N     72.85000000    66.75000000     4.95000000
   O     72.97000000    66.20000000     7.13000000
   H     74.42000000    71.13000000     6.99000000
   H     72.78000000    69.52000000     5.14000000
   H     74.51000000    68.30000000     7.37000000
   H     74.88000000    68.15000000     5.67000000
   H     73.20000000    67.31000000     4.19000000
   H     72.48000000    65.83000000     4.72000000
   N     70.97000000    69.26000000     6.73000000
   C     69.92000000    69.15000000     7.72000000
   C     70.02000000    67.96000000     8.67000000
   O     69.88000000    66.79000000     8.32000000
   H     70.80000000    68.79000000     5.86000000
   H     68.95000000    69.02000000     7.24000000
   H     69.84000000    70.03000000     8.35000000
   N     70.27000000    68.10000000     9.97000000
   C     70.46000000    69.28000000    10.78000000
   C     71.64000000    69.18000000    11.74000000
   O     72.23000000    70.18000000    12.16000000
   C     69.26000000    69.74000000    11.61000000
   C     68.09000000    70.22000000    10.76000000
   O     68.89000000    68.69000000    12.48000000
   H     70.35000000    67.25000000    10.51000000
   H     70.79000000    70.04000000    10.07000000
   H     69.64000000    70.57000000    12.20000000
   H     68.17000000    69.09000000    12.97000000
   H     67.45000000    69.42000000    10.39000000
   H     67.52000000    70.90000000    11.39000000
   H     68.49000000    70.89000000    10.00000000
   N     72.12000000    67.98000000    12.05000000
   C     73.08000000    67.46000000    13.01000000
   C     72.65000000    67.50000000    14.47000000
   O     72.39000000    68.58000000    15.01000000
   C     74.48000000    68.03000000    12.77000000
   C     75.00000000    67.96000000    11.34000000
   C     75.46000000    67.44000000    13.78000000
   C     75.04000000    66.56000000    10.73000000
   H     71.43000000    67.29000000    11.80000000
   H     73.25000000    66.41000000    12.76000000
   H     74.38000000    69.08000000    13.06000000
   H     76.05000000    68.28000000    11.34000000
   H     74.43000000    68.66000000    10.73000000
   H     75.19000000    67.56000000    14.83000000
   H     75.54000000    66.36000000    13.68000000
   H     76.42000000    67.95000000    13.76000000
   H     74.03000000    66.16000000    10.63000000
   H     75.39000000    66.68000000     9.70000000
   H     75.63000000    65.85000000    11.31000000
   N     72.49000000    66.36000000    15.15000000
   C     72.54000000    64.97000000    14.76000000
   C     73.99000000    64.50000000    14.76000000
   O     74.52000000    64.16000000    13.71000000
   C     71.63000000    64.16000000    15.68000000
   C     71.79000000    64.28000000    17.19000000
   O     71.21000000    63.48000000    17.94000000
   O     72.53000000    65.18000000    17.66000000
   H     72.44000000    66.42000000    16.15000000
   H     72.24000000    64.88000000    13.71000000
   H     71.65000000    63.11000000    15.41000000
   H     70.61000000    64.49000000    15.45000000
   N     74.71000000    64.71000000    15.86000000
   C     76.09000000    64.29000000    15.95000000
   C     76.15000000    62.91000000    16.59000000
   O     75.12000000    62.36000000    16.95000000
   C     76.86000000    65.40000000    16.67000000
   C     76.66000000    65.65000000    18.14000000
   C     75.71000000    66.62000000    18.48000000
   C     77.28000000    64.88000000    19.13000000
   C     75.26000000    66.71000000    19.81000000
   C     76.93000000    65.06000000    20.47000000
   C     75.97000000    66.03000000    20.80000000
   H     74.27000000    64.96000000    16.73000000
   H     76.45000000    64.18000000    14.93000000
   H     76.71000000    66.29000000    16.06000000
   H     77.94000000    65.34000000    16.56000000
   H     75.31000000    67.22000000    17.68000000
   H     78.03000000    64.13000000    18.89000000
   H     74.48000000    67.38000000    20.12000000
   H     77.43000000    64.44000000    21.19000000
   H     75.76000000    66.08000000    21.86000000
   N     77.28000000    62.20000000    16.66000000
   C     78.63000000    62.57000000    16.26000000
   C     78.82000000    62.67000000    14.75000000
   O     77.88000000    62.52000000    13.96000000
   C     79.58000000    61.53000000    16.85000000
   C     78.72000000    60.90000000    17.94000000
   C     77.35000000    60.89000000    17.27000000
   H     78.86000000    63.58000000    16.59000000
   H     79.82000000    60.67000000    16.22000000
   H     80.50000000    62.00000000    17.20000000
   H     79.01000000    59.86000000    18.14000000
   H     78.64000000    61.45000000    18.87000000
   H     77.47000000    60.20000000    16.44000000
   H     76.57000000    60.67000000    18.00000000
   N     80.03000000    63.03000000    14.33000000
   C     80.39000000    63.09000000    12.92000000
   C     81.31000000    64.22000000    12.50000000
   O     81.84000000    64.28000000    11.39000000
   C     80.92000000    61.72000000    12.49000000
   C     80.02000000    60.50000000    12.51000000
   C     78.78000000    60.66000000    11.64000000
   O     78.62000000    61.61000000    10.84000000
   O     77.86000000    59.84000000    11.86000000
   H     80.72000000    63.24000000    15.03000000
   H     79.47000000    63.28000000    12.38000000
   H     81.84000000    61.52000000    13.05000000
   H     81.05000000    61.82000000    11.41000000
   H     79.70000000    60.29000000    13.54000000
   H     80.58000000    59.63000000    12.16000000
   N     81.55000000    65.31000000    13.23000000
   C     80.93000000    65.88000000    14.41000000
   H     79.92100000    65.48300000    14.51700000
   H     81.51700000    65.62100000    15.29100000
   H     80.88400000    66.96400000    14.30900000
   H     82.23000000    65.94000000    12.84000000
  Ca     79.80000000    72.09000000     7.32000000
   O     77.23000000    73.27000000     8.09000000
   H     77.52000000    74.18000000     7.92000000
   H     76.29000000    73.29000000     7.96000000
   O     79.10000000    70.31000000     5.04000000
   H     79.79000000    70.19000000     4.40000000
   H     78.50000000    69.58000000     4.88000000
   O     77.82000000    70.50000000     8.16000000
   H     77.05000000    70.68000000     8.69000000
   H     77.59000000    69.73000000     7.64000000
   O     80.12000000    72.47000000     9.95000000
   H     79.51000000    72.48000000    10.69000000
   H     80.90000000    72.93000000    10.27000000
   O     82.53000000    72.57000000     7.81000000
   H     82.94000000    72.33000000     8.64000000
   H     83.26000000    72.75000000     7.22000000
   O     81.04000000    69.85000000     7.83000000
   H     80.94000000    68.90000000     7.93000000
   H     81.95000000    69.97000000     7.56000000
   O     81.27000000    72.48000000     5.12000000
   H     81.26000000    72.19000000     4.21000000
   H     81.64000000    73.36000000     5.09000000

Ca 1.70



