%chk=loop2.cluster31.chk
%nprocshared=48
%mem=10GB
%nosave
#b3lyp/svp scf=(tight,noincore) Test 
#IOP(5/87=12) Density=Current Pop=(MK,readradii) iop(6/33=2) iop(6/42=6)

loop2.cluster31 

   -2  1 
   C     48.50000000    46.06000000     5.30000000
   C     47.70000000    47.14000000     4.58000000
   O     47.46000000    48.19000000     5.18000000
   H     49.42100000    46.49100000     5.69200000
   H     47.90900000    45.65700000     6.12300000
   H     48.74300000    45.26000000     4.60100000
   N     47.15000000    47.08000000     3.37000000
   C     47.03000000    46.02000000     2.38000000
   C     45.63000000    45.55000000     2.05000000
   O     44.73000000    46.34000000     1.75000000
   C     47.80000000    46.43000000     1.13000000
   C     47.80000000    47.92000000     0.82000000
   O     48.70000000    48.26000000     0.01000000
   O     46.90000000    48.71000000     1.16000000
   H     46.63000000    47.90000000     3.10000000
   H     47.64000000    45.15000000     2.61000000
   H     47.42000000    45.84000000     0.30000000
   H     48.85000000    46.12000000     1.18000000
   N     45.46000000    44.23000000     2.17000000
   C     44.24000000    43.46000000     2.01000000
   C     43.45000000    43.53000000     0.71000000
   O     43.18000000    42.48000000     0.14000000
   C     43.25000000    43.71000000     3.15000000
   H     46.31000000    43.79000000     2.49000000
   H     44.48000000    42.40000000     2.08000000
   H     42.52000000    44.46000000     2.85000000
   H     42.69000000    42.78000000     3.30000000
   H     43.78000000    43.92000000     4.07000000
   N     43.11000000    44.73000000     0.23000000
   C     42.37000000    44.92000000    -1.01000000
   C     43.08000000    45.89000000    -1.93000000
   O     43.58000000    46.92000000    -1.48000000
   C     40.94000000    45.36000000    -0.74000000
   C     40.74000000    46.38000000     0.38000000
   O     41.71000000    47.06000000     0.76000000
   O     39.60000000    46.66000000     0.81000000
   H     43.34000000    45.53000000     0.80000000
   H     42.28000000    43.96000000    -1.51000000
   H     40.46000000    44.43000000    -0.44000000
   H     40.43000000    45.63000000    -1.67000000
   N     43.05000000    45.63000000    -3.24000000
   C     43.77000000    46.30000000    -4.30000000
   C     43.11000000    47.57000000    -4.81000000
   O     42.70000000    47.68000000    -5.97000000
   H     42.60000000    44.76000000    -3.50000000
   H     43.89000000    45.56000000    -5.09000000
   H     44.76000000    46.55000000    -3.92000000
   N     43.11000000    48.60000000    -3.97000000
   C     42.39000000    49.86000000    -4.07000000
   C     43.14000000    50.97000000    -3.34000000
   O     42.49000000    51.95000000    -3.00000000
   C     41.00000000    49.60000000    -3.48000000
   C     40.91000000    49.21000000    -2.01000000
   N     39.74000000    48.76000000    -1.55000000
   O     41.86000000    49.15000000    -1.24000000
   H     43.40000000    48.36000000    -3.04000000
   H     42.14000000    50.13000000    -5.09000000
   H     40.56000000    48.80000000    -4.08000000
   H     40.40000000    50.49000000    -3.67000000
   H     38.92000000    48.89000000    -2.13000000
   H     39.72000000    48.51000000    -0.57000000
   N     44.42000000    50.86000000    -2.99000000
   C     45.18000000    51.81000000    -2.20000000
   C     44.72000000    51.85000000    -0.75000000
   O     44.04000000    50.92000000    -0.33000000
   H     44.86000000    50.01000000    -3.31000000
   H     45.02000000    52.79000000    -2.66000000
   H     46.24000000    51.58000000    -2.26000000
   N     45.13000000    52.77000000     0.12000000
   C     46.12000000    53.80000000    -0.13000000
   C     47.26000000    53.88000000     0.88000000
   O     48.25000000    54.55000000     0.62000000
   C     45.62000000    55.24000000    -0.13000000
   C     44.76000000    55.43000000    -1.38000000
   O     44.85000000    55.56000000     1.01000000
   H     44.67000000    52.66000000     1.01000000
   H     46.58000000    53.69000000    -1.11000000
   H     46.42000000    55.96000000    -0.28000000
   H     45.19000000    56.40000000     1.34000000
   H     45.42000000    55.23000000    -2.22000000
   H     43.83000000    54.86000000    -1.29000000
   H     44.45000000    56.47000000    -1.45000000
   N     47.11000000    53.18000000     2.00000000
   C     47.77000000    53.33000000     3.29000000
   C     47.72000000    54.79000000     3.73000000
   O     48.57000000    55.60000000     3.36000000
   C     49.16000000    52.71000000     3.37000000
   C     49.03000000    51.26000000     2.90000000
   C     49.80000000    52.69000000     4.75000000
   C     50.28000000    50.40000000     2.82000000
   H     46.23000000    52.69000000     1.98000000
   H     47.17000000    52.75000000     3.99000000
   H     49.75000000    53.32000000     2.68000000
   H     48.75000000    51.32000000     1.85000000
   H     48.31000000    50.73000000     3.52000000
   H     49.81000000    53.67000000     5.23000000
   H     49.28000000    51.93000000     5.32000000
   H     50.85000000    52.49000000     4.49000000
   H     50.77000000    50.40000000     3.79000000
   H     49.99000000    49.38000000     2.56000000
   H     50.97000000    50.77000000     2.06000000
   N     46.71000000    55.26000000     4.45000000
   C     45.55000000    54.57000000     4.98000000
   C     45.95000000    53.89000000     6.28000000
   O     45.57000000    52.73000000     6.41000000
   C     44.40000000    55.52000000     5.27000000
   C     44.77000000    56.84000000     5.93000000
   O     45.94000000    57.12000000     6.28000000
   O     43.88000000    57.70000000     6.12000000
   H     46.80000000    56.24000000     4.71000000
   H     45.29000000    53.72000000     4.33000000
   H     43.58000000    55.08000000     5.84000000
   H     43.95000000    55.77000000     4.31000000
   N     46.81000000    54.53000000     7.08000000
   C     47.27000000    53.85000000     8.27000000
   C     46.21000000    53.78000000     9.35000000
   O     45.21000000    54.49000000     9.23000000
   C     48.61000000    54.47000000     8.66000000
   C     48.60000000    55.90000000     9.14000000
   C     48.82000000    57.00000000     8.30000000
   C     48.40000000    56.16000000    10.50000000
   C     48.87000000    58.30000000     8.79000000
   C     48.49000000    57.43000000    11.07000000
   C     48.68000000    58.49000000    10.17000000
   H     47.04000000    55.50000000     6.95000000
   H     47.48000000    52.83000000     7.95000000
   H     49.34000000    54.52000000     7.85000000
   H     49.20000000    53.83000000     9.31000000
   H     49.05000000    56.81000000     7.26000000
   H     48.32000000    55.37000000    11.24000000
   H     49.01000000    59.14000000     8.12000000
   H     48.48000000    57.54000000    12.15000000
   H     48.86000000    59.48000000    10.55000000
   N     46.44000000    53.13000000    10.49000000
   C     47.36000000    52.01000000    10.60000000
   C     47.21000000    50.84000000     9.64000000
   O     46.48000000    50.92000000     8.65000000
   C     47.35000000    51.61000000    12.07000000
   C     46.83000000    52.86000000    12.78000000
   C     45.84000000    53.44000000    11.77000000
   H     48.37000000    52.40000000    10.42000000
   H     46.58000000    50.85000000    12.23000000
   H     48.36000000    51.38000000    12.38000000
   H     46.46000000    52.66000000    13.79000000
   H     47.67000000    53.54000000    12.94000000
   H     44.84000000    53.01000000    11.85000000
   H     45.74000000    54.51000000    11.91000000
   N     47.97000000    49.76000000     9.85000000
   C     47.98000000    48.59000000     9.00000000
   C     49.18000000    47.71000000     9.30000000
   O     49.09000000    46.49000000     9.43000000
   C     46.67000000    47.83000000     9.18000000
   C     46.25000000    47.39000000    10.58000000
   C     45.21000000    46.28000000    10.56000000
   O     44.12000000    46.53000000    11.13000000
   O     45.41000000    45.16000000    10.04000000
   H     48.67000000    49.78000000    10.58000000
   H     48.17000000    48.88000000     7.96000000
   H     46.60000000    46.97000000     8.51000000
   H     45.86000000    48.48000000     8.88000000
   H     45.86000000    48.33000000    10.97000000
   H     47.15000000    47.07000000    11.10000000
   N     50.45000000    48.12000000     9.26000000
   C     51.07000000    49.40000000     8.96000000
   H     52.04400000    49.23200000     8.50100000
   H     50.43600000    49.95900000     8.27200000
   H     51.19600000    49.96800000     9.88200000
   H     51.09000000    47.33000000     9.24000000
  Ca     43.66000000    48.57000000     0.74000000
   O     45.26000000    50.33000000     2.11000000
   H     45.44000000    50.35000000     3.05000000
   H     46.05000000    49.96000000     1.72000000
   O     41.66000000    50.24000000     1.58000000
   H     41.57000000    50.60000000     0.69000000
   H     41.07000000    50.77000000     2.11000000
   O     43.09000000    48.60000000     3.46000000
   H     43.72000000    48.34000000     4.14000000
   H     42.28000000    48.16000000     3.70000000
   O     45.68000000    48.69000000    -1.20600000
   H     46.41000000    48.86000000    -0.61600000
   H     46.10000000    48.47000000    -2.03600000

Ca 1.70



