%chk=loop2.cluster92.chk
%nprocshared=48
%mem=10GB
%nosave
#b3lyp/svp scf=(tight,noincore) Test 
#IOP(5/87=12) Density=Current Pop=(MK,readradii) iop(6/33=2) iop(6/42=6)

loop2.cluster92 

   -2  1 
   C     61.74000000    65.69000000    11.25000000
   C     60.56000000    66.47000000    11.78000000
   O     60.78000000    67.24000000    12.71000000
   H     62.59600000    65.83400000    11.90900000
   H     61.48700000    64.63000000    11.21000000
   H     61.99000000    66.04300000    10.24900000
   N     59.30000000    66.24000000    11.38000000
   C     58.09000000    66.74000000    12.00000000
   C     57.91000000    66.21000000    13.42000000
   O     58.18000000    65.06000000    13.76000000
   C     56.91000000    66.41000000    11.09000000
   C     55.60000000    66.87000000    11.71000000
   O     54.59000000    66.19000000    11.41000000
   O     55.49000000    67.75000000    12.59000000
   H     59.15000000    65.73000000    10.52000000
   H     58.17000000    67.82000000    11.95000000
   H     56.89000000    65.39000000    10.71000000
   H     57.02000000    66.96000000    10.15000000
   N     57.52000000    67.13000000    14.31000000
   C     57.32000000    66.77000000    15.70000000
   C     56.08000000    65.89000000    15.81000000
   O     56.06000000    65.08000000    16.73000000
   C     57.20000000    68.12000000    16.42000000
   H     57.45000000    68.09000000    14.01000000
   H     58.08000000    66.20000000    16.23000000
   H     58.12000000    68.60000000    16.12000000
   H     56.30000000    68.54000000    15.96000000
   H     57.10000000    68.03000000    17.50000000
   N     55.05000000    66.01000000    14.97000000
   C     53.82000000    65.25000000    15.00000000
   C     53.83000000    63.94000000    14.22000000
   O     52.95000000    63.12000000    14.49000000
   C     52.59000000    66.00000000    14.49000000
   C     52.60000000    67.44000000    14.99000000
   O     52.93000000    68.39000000    14.25000000
   O     52.27000000    67.71000000    16.16000000
   H     55.13000000    66.61000000    14.16000000
   H     53.56000000    64.97000000    16.02000000
   H     51.68000000    65.52000000    14.83000000
   H     52.74000000    66.06000000    13.41000000
   N     54.77000000    63.73000000    13.30000000
   C     54.74000000    62.64000000    12.35000000
   C     53.61000000    62.68000000    11.32000000
   O     53.18000000    61.61000000    10.90000000
   H     55.50000000    64.42000000    13.20000000
   H     54.59000000    61.74000000    12.96000000
   H     55.71000000    62.59000000    11.86000000
   N     53.15000000    63.88000000    10.96000000
   C     51.85000000    64.15000000    10.38000000
   C     52.00000000    65.11000000     9.21000000
   O     50.97000000    65.37000000     8.59000000
   C     50.87000000    64.57000000    11.47000000
   C     49.43000000    64.62000000    10.98000000
   N     48.86000000    65.83000000    11.03000000
   O     48.74000000    63.68000000    10.61000000
   H     53.80000000    64.62000000    11.21000000
   H     51.48000000    63.22000000     9.94000000
   H     51.19000000    65.54000000    11.83000000
   H     50.90000000    63.88000000    12.31000000
   H     49.39000000    66.61000000    11.39000000
   H     47.93000000    65.94000000    10.66000000
   N     53.14000000    65.77000000     8.99000000
   C     53.46000000    66.28000000     7.67000000
   C     53.41000000    67.79000000     7.47000000
   O     53.84000000    68.18000000     6.39000000
   H     53.81000000    65.80000000     9.74000000
   H     52.76000000    65.81000000     6.98000000
   H     54.48000000    65.94000000     7.47000000
   N     52.89000000    68.57000000     8.42000000
   C     53.01000000    70.02000000     8.36000000
   C     54.13000000    70.65000000     9.16000000
   O     54.22000000    70.51000000    10.38000000
   C     51.75000000    70.81000000     8.72000000
   C     51.93000000    72.33000000     8.68000000
   O     50.77000000    70.38000000     7.80000000
   H     52.63000000    68.09000000     9.27000000
   H     53.22000000    70.22000000     7.31000000
   H     51.53000000    70.58000000     9.76000000
   H     50.28000000    69.72000000     8.30000000
   H     50.95000000    72.76000000     8.87000000
   H     52.53000000    72.68000000     9.52000000
   H     52.43000000    72.60000000     7.75000000
   N     55.06000000    71.24000000     8.41000000
   C     56.28000000    71.77000000     8.99000000
   C     56.00000000    73.14000000     9.60000000
   O     55.57000000    74.08000000     8.94000000
   C     57.31000000    71.95000000     7.88000000
   C     57.78000000    70.60000000     7.36000000
   C     58.59000000    72.67000000     8.31000000
   C     58.43000000    69.63000000     8.35000000
   H     54.96000000    71.26000000     7.40000000
   H     56.63000000    71.07000000     9.75000000
   H     56.87000000    72.52000000     7.07000000
   H     58.54000000    70.78000000     6.59000000
   H     56.97000000    70.08000000     6.86000000
   H     59.10000000    72.06000000     9.05000000
   H     59.09000000    72.80000000     7.35000000
   H     58.42000000    73.69000000     8.67000000
   H     59.32000000    69.24000000     7.85000000
   H     58.72000000    70.04000000     9.31000000
   H     57.70000000    68.85000000     8.57000000
   N     56.39000000    73.28000000    10.87000000
   C     56.54000000    74.54000000    11.57000000
   C     57.97000000    75.05000000    11.61000000
   O     58.91000000    74.26000000    11.50000000
   C     56.00000000    74.30000000    12.98000000
   C     54.59000000    73.75000000    13.06000000
   O     54.40000000    72.53000000    12.85000000
   O     53.65000000    74.55000000    13.28000000
   H     56.65000000    72.44000000    11.37000000
   H     56.02000000    75.33000000    11.02000000
   H     56.08000000    75.22000000    13.57000000
   H     56.75000000    73.67000000    13.45000000
   N     58.23000000    76.35000000    11.76000000
   C     59.56000000    76.90000000    11.58000000
   C     60.70000000    76.19000000    12.31000000
   O     61.76000000    76.00000000    11.73000000
   C     59.55000000    78.40000000    11.81000000
   C     60.84000000    79.14000000    11.55000000
   C     61.32000000    79.24000000    10.24000000
   C     61.63000000    79.70000000    12.56000000
   C     62.59000000    79.78000000    10.00000000
   C     62.91000000    80.21000000    12.33000000
   C     63.43000000    80.25000000    11.03000000
   H     57.46000000    76.94000000    12.04000000
   H     59.68000000    76.77000000    10.50000000
   H     59.41000000    78.60000000    12.88000000
   H     58.75000000    78.93000000    11.28000000
   H     60.77000000    78.82000000     9.41000000
   H     61.26000000    79.74000000    13.57000000
   H     62.88000000    79.95000000     8.97000000
   H     63.54000000    80.61000000    13.11000000
   H     64.40000000    80.65000000    10.78000000
   N     60.56000000    75.62000000    13.51000000
   C     61.60000000    74.90000000    14.21000000
   C     61.98000000    73.61000000    13.50000000
   O     63.16000000    73.31000000    13.30000000
   C     61.14000000    74.59000000    15.63000000
   C     60.04000000    75.63000000    15.81000000
   C     59.45000000    75.86000000    14.41000000
   H     62.50000000    75.51000000    14.16000000
   H     60.64000000    73.62000000    15.58000000
   H     61.92000000    74.62000000    16.39000000
   H     59.26000000    75.30000000    16.50000000
   H     60.49000000    76.58000000    16.08000000
   H     58.61000000    75.19000000    14.22000000
   H     59.12000000    76.89000000    14.38000000
   N     60.98000000    73.05000000    12.82000000
   C     61.09000000    71.77000000    12.14000000
   C     61.66000000    71.97000000    10.75000000
   O     62.27000000    71.06000000    10.19000000
   C     59.70000000    71.15000000    12.01000000
   C     58.93000000    70.78000000    13.28000000
   C     57.44000000    70.51000000    13.15000000
   O     56.78000000    70.54000000    12.09000000
   O     56.77000000    70.22000000    14.16000000
   H     60.14000000    73.58000000    12.66000000
   H     61.64000000    71.00000000    12.68000000
   H     59.87000000    70.19000000    11.52000000
   H     59.03000000    71.76000000    11.41000000
   H     59.05000000    71.60000000    14.00000000
   H     59.49000000    70.00000000    13.81000000
   N     61.54000000    73.19000000    10.20000000
   C     62.15000000    73.63000000     8.97000000
   H     63.16200000    73.23000000     8.90400000
   H     61.56300000    73.27300000     8.12400000
   H     62.18800000    74.71900000     8.95200000
   H     61.21000000    73.92000000    10.83000000
  Ca     54.39000000    69.97000000    12.93000000
   O     53.92000000    71.08000000    15.45000000
   H     53.86000000    71.98000000    15.13000000
   H     53.02000000    70.85000000    15.69000000
   O     51.74000000    71.26000000    13.14000000
   H     51.66000000    72.21000000    13.20000000
   H     51.35000000    70.93000000    13.95000000
   O     52.63000000    68.22000000    11.48000000
   H     53.26000000    67.52000000    11.66000000
   H     51.89000000    68.02000000    12.04000000

Ca 1.70



