%chk=loop1.cluster74.chk
%nprocshared=48
%mem=10GB
%nosave
#b3lyp/svp scf=(tight,noincore) Test 
#IOP(5/87=12) Density=Current Pop=(MK,readradii) iop(6/33=2) iop(6/42=6)

loop1.cluster74 

   0  1 
   C     50.18000000    78.92000000   -16.18500000
   C     48.81000000    78.31000000   -15.91500000
   O     48.31000000    77.42000000   -16.59500000
   H     50.90800000    78.12300000   -16.33700000
   H     50.13200000    79.54200000   -17.07800000
   H     50.48100000    79.52900000   -15.33300000
   N     48.20000000    78.94000000   -14.91500000
   C     46.88000000    78.72000000   -14.36500000
   C     45.78000000    79.19000000   -15.31500000
   O     45.92000000    80.25000000   -15.90500000
   C     46.85000000    79.43000000   -13.01500000
   C     45.68000000    78.98000000   -12.14500000
   O     45.76000000    79.31000000   -10.94500000
   O     44.71000000    78.29000000   -12.54500000
   H     48.63000000    79.78000000   -14.54500000
   H     46.64000000    77.66000000   -14.28500000
   H     46.94000000    80.51000000   -13.12500000
   H     47.74000000    79.10000000   -12.48500000
   N     44.67000000    78.44000000   -15.30500000
   C     43.54000000    78.71000000   -16.16500000
   C     42.20000000    78.88000000   -15.45500000
   O     41.25000000    79.32000000   -16.10500000
   C     43.56000000    77.61000000   -17.22500000
   C     44.69000000    77.82000000   -18.23500000
   C     44.83000000    76.65000000   -19.19500000
   C     46.20000000    76.00000000   -19.37500000
   N     47.27000000    76.77000000   -20.01500000
   H     44.60000000    77.61000000   -14.73500000
   H     43.73000000    79.64000000   -16.71500000
   H     42.63000000    77.71000000   -17.77500000
   H     43.61000000    76.64000000   -16.73500000
   H     45.61000000    77.78000000   -17.65500000
   H     44.59000000    78.77000000   -18.75500000
   H     44.42000000    76.92000000   -20.17500000
   H     44.09000000    75.90000000   -18.92500000
   H     46.10000000    75.10000000   -19.98500000
   H     46.60000000    75.75000000   -18.39500000
   H     46.96000000    76.87000000   -20.97500000
   H     47.37000000    77.67000000   -19.55500000
   H     48.19000000    76.34000000   -20.03500000
   N     42.16000000    78.70000000   -14.13500000
   C     40.92000000    78.74000000   -13.37500000
   C     41.06000000    79.23000000   -11.94500000
   O     40.07000000    79.55000000   -11.28500000
   C     40.27000000    77.36000000   -13.48500000
   C     41.10000000    76.19000000   -12.99500000
   O     40.73000000    75.05000000   -13.36500000
   O     42.11000000    76.37000000   -12.28500000
   H     43.03000000    78.43000000   -13.71500000
   H     40.40000000    79.58000000   -13.83500000
   H     39.94000000    77.21000000   -14.51500000
   H     39.32000000    77.26000000   -12.96500000
   N     42.28000000    79.34000000   -11.41500000
   C     42.50000000    79.75000000   -10.04500000
   C     41.95000000    78.87000000    -8.93500000
   O     41.72000000    79.33000000    -7.81500000
   H     43.03000000    79.26000000   -12.07500000
   H     42.11000000    80.75000000    -9.83500000
   H     43.58000000    79.79000000    -9.87500000
   N     41.83000000    77.55000000    -9.12500000
   C     41.30000000    76.67000000    -8.10500000
   C     42.31000000    76.48000000    -6.97500000
   O     41.99000000    75.79000000    -6.00500000
   C     40.93000000    75.32000000    -8.72500000
   C     42.05000000    74.53000000    -9.38500000
   O     41.74000000    73.35000000    -9.68500000
   O     43.13000000    75.12000000    -9.62500000
   H     42.07000000    77.12000000   -10.00500000
   H     40.42000000    77.06000000    -7.60500000
   H     40.15000000    75.67000000    -9.39500000
   H     40.42000000    74.67000000    -8.01500000
   N     43.53000000    77.00000000    -7.00500000
   C     44.60000000    76.83000000    -6.03500000
   C     45.56000000    75.70000000    -6.36500000
   O     46.61000000    75.64000000    -5.72500000
   H     43.73000000    77.51000000    -7.85500000
   H     44.14000000    76.73000000    -5.05500000
   H     45.12000000    77.79000000    -6.07500000
   N     45.39000000    74.89000000    -7.41500000
   C     46.24000000    73.80000000    -7.84500000
   C     46.57000000    73.59000000    -9.31500000
   O     45.73000000    73.89000000   -10.15500000
   C     45.70000000    72.48000000    -7.29500000
   C     45.72000000    72.61000000    -5.77500000
   O     44.33000000    72.29000000    -7.57500000
   H     44.70000000    75.17000000    -8.09500000
   H     47.19000000    74.05000000    -7.38500000
   H     46.31000000    71.64000000    -7.64500000
   H     44.32000000    71.91000000    -8.45500000
   H     46.76000000    72.81000000    -5.51500000
   H     44.96000000    73.31000000    -5.43500000
   H     45.39000000    71.61000000    -5.49500000
   N     47.64000000    72.85000000    -9.64500000
   C     47.91000000    72.58000000   -11.04500000
   C     47.25000000    71.30000000   -11.52500000
   O     47.49000000    70.23000000   -10.96500000
   C     49.40000000    72.57000000   -11.38500000
   C     50.05000000    73.95000000   -11.42500000
   C     49.79000000    71.73000000   -12.59500000
   C     49.84000000    74.87000000   -12.62500000
   H     48.29000000    72.59000000    -8.91500000
   H     47.56000000    73.45000000   -11.60500000
   H     49.87000000    72.03000000   -10.56500000
   H     51.13000000    73.81000000   -11.33500000
   H     49.64000000    74.57000000   -10.63500000
   H     49.52000000    70.69000000   -12.43500000
   H     49.23000000    72.15000000   -13.43500000
   H     50.84000000    71.79000000   -12.86500000
   H     48.77000000    74.96000000   -12.80500000
   H     50.15000000    75.89000000   -12.41500000
   H     50.43000000    74.56000000   -13.48500000
   N     46.55000000    71.42000000   -12.65500000
   C     46.00000000    70.30000000   -13.39500000
   C     46.78000000    69.96000000   -14.65500000
   O     47.67000000    70.77000000   -14.94500000
   C     44.52000000    70.53000000   -13.69500000
   C     44.25000000    71.28000000   -14.99500000
   O     43.79000000    69.33000000   -13.81500000
   H     46.49000000    72.30000000   -13.14500000
   H     45.97000000    69.50000000   -12.64500000
   H     44.02000000    71.00000000   -12.84500000
   H     43.70000000    68.79000000   -13.02500000
   H     43.20000000    71.57000000   -14.99500000
   H     44.90000000    72.15000000   -14.94500000
   H     44.39000000    70.56000000   -15.80500000
   N     46.78000000    68.79000000   -15.28500000
   C     47.60000000    68.25000000   -16.34500000
   C     47.75000000    69.16000000   -17.55500000
   O     48.85000000    69.24000000   -18.10500000
   C     46.95000000    66.92000000   -16.72500000
   C     47.42000000    65.67000000   -15.97500000
   O     45.55000000    67.05000000   -16.81500000
   H     46.16000000    68.12000000   -14.83500000
   H     48.61000000    68.05000000   -16.00500000
   H     47.28000000    66.68000000   -17.73500000
   H     45.19000000    66.22000000   -17.12500000
   H     47.07000000    65.68000000   -14.94500000
   H     47.15000000    64.78000000   -16.54500000
   H     48.50000000    65.62000000   -15.92500000
   N     46.68000000    69.89000000   -17.89500000
   C     46.64000000    70.86000000   -18.97500000
   C     47.29000000    72.17000000   -18.53500000
   O     47.54000000    73.06000000   -19.34500000
   C     45.22000000    71.08000000   -19.49500000
   C     44.57000000    69.85000000   -20.11500000
   C     43.37000000    70.19000000   -20.98500000
   C     43.09000000    69.06000000   -21.97500000
   N     43.95000000    69.10000000   -23.16500000
   H     45.88000000    69.70000000   -17.30500000
   H     47.16000000    70.50000000   -19.85500000
   H     45.35000000    71.96000000   -20.12500000
   H     44.50000000    71.40000000   -18.73500000
   H     44.21000000    69.16000000   -19.35500000
   H     45.40000000    69.40000000   -20.65500000
   H     43.53000000    71.13000000   -21.51500000
   H     42.49000000    70.31000000   -20.35500000
   H     42.04000000    69.09000000   -22.27500000
   H     43.18000000    68.11000000   -21.45500000
   H     43.99000000    68.16000000   -23.53500000
   H     43.68000000    69.86000000   -23.77500000
   H     44.91000000    69.27000000   -22.91500000
   N     47.59000000    72.43000000   -17.26500000
   C     48.36000000    73.56000000   -16.78500000
   C     49.83000000    73.20000000   -16.71500000
   O     50.74000000    73.97000000   -17.02500000
   C     47.79000000    73.98000000   -15.43500000
   C     46.42000000    74.64000000   -15.52500000
   C     45.61000000    74.87000000   -14.25500000
   O     45.87000000    74.28000000   -13.17500000
   O     44.67000000    75.69000000   -14.26500000
   H     47.45000000    71.75000000   -16.52500000
   H     48.26000000    74.42000000   -17.45500000
   H     48.48000000    74.80000000   -15.21500000
   H     47.80000000    73.15000000   -14.73500000
   H     45.80000000    74.06000000   -16.21500000
   H     46.48000000    75.59000000   -16.05500000
   N     50.14000000    71.95000000   -16.34500000
   C     51.49000000    71.43000000   -16.27500000
   H     52.14700000    72.18500000   -15.84300000
   H     51.50400000    70.53700000   -15.65100000
   H     51.83600000    71.17900000   -17.27800000
   H     49.41000000    71.34000000   -16.01500000
  Ca     44.60000000    75.80000000   -11.56500000
   O     42.95000000    73.66000000   -12.18500000
   H     42.59000000    73.10000000   -11.49500000
   H     42.19000000    74.09000000   -12.56500000
   O     45.52000000    77.12000000    -9.35500000
   H     45.60000000    77.94000000    -9.82500000
   H     46.25000000    77.13000000    -8.73500000
   O     47.49000000    76.37000000   -11.42500000
   H     48.14000000    76.95000000   -11.82500000
   H     47.48000000    76.62000000   -10.50500000

Ca 1.70



