%chk=loop1.cluster6.chk
%nprocshared=48
%mem=10GB
%nosave
#b3lyp/svp scf=(tight,noincore) Test 
#IOP(5/87=12) Density=Current Pop=(MK,readradii) iop(6/33=2) iop(6/42=6)

loop1.cluster6 

   0  1 
   C     32.50000000    78.42000000    25.06000000
   C     33.41000000    77.74000000    26.08000000
   O     34.46000000    77.19000000    25.76000000
   H     31.60900000    78.79500000    25.56300000
   H     33.03100000    79.25100000    24.59500000
   H     32.20900000    77.70000000    24.29500000
   N     33.09000000    77.76000000    27.38000000
   C     33.62000000    77.04000000    28.52000000
   C     32.64000000    75.96000000    28.94000000
   O     32.95000000    75.29000000    29.92000000
   C     33.91000000    78.06000000    29.62000000
   C     32.68000000    78.77000000    30.17000000
   O     31.92000000    79.44000000    29.44000000
   O     32.56000000    78.74000000    31.42000000
   H     32.29000000    78.30000000    27.65000000
   H     34.55000000    76.52000000    28.29000000
   H     34.52000000    78.88000000    29.24000000
   H     34.47000000    77.61000000    30.43000000
   N     31.46000000    75.75000000    28.36000000
   C     30.49000000    74.81000000    28.88000000
   C     30.01000000    73.81000000    27.83000000
   O     28.96000000    74.03000000    27.24000000
   C     29.34000000    75.54000000    29.56000000
   C     29.82000000    76.63000000    30.51000000
   C     28.68000000    77.31000000    31.27000000
   C     29.18000000    78.48000000    32.10000000
   N     29.85000000    79.45000000    31.21000000
   H     31.24000000    76.16000000    27.46000000
   H     30.94000000    74.15000000    29.63000000
   H     28.80000000    74.78000000    30.13000000
   H     28.60000000    75.99000000    28.89000000
   H     30.35000000    77.39000000    29.94000000
   H     30.59000000    76.25000000    31.19000000
   H     28.13000000    76.62000000    31.92000000
   H     28.02000000    77.71000000    30.50000000
   H     29.84000000    78.13000000    32.90000000
   H     28.31000000    78.92000000    32.59000000
   H     29.73000000    80.40000000    31.51000000
   H     30.81000000    79.17000000    31.08000000
   H     29.52000000    79.40000000    30.26000000
   N     30.62000000    72.66000000    27.53000000
   C     31.80000000    71.99000000    28.05000000
   C     31.76000000    71.82000000    29.56000000
   O     30.70000000    72.05000000    30.14000000
   C     33.07000000    72.65000000    27.51000000
   C     34.07000000    71.80000000    26.73000000
   O     35.26000000    72.17000000    26.73000000
   O     33.62000000    70.84000000    26.06000000
   H     29.96000000    72.04000000    27.09000000
   H     31.72000000    70.99000000    27.64000000
   H     33.56000000    73.24000000    28.28000000
   H     32.75000000    73.48000000    26.89000000
   N     32.74000000    71.34000000    30.33000000
   C     34.17000000    71.34000000    30.12000000
   C     34.84000000    70.75000000    31.35000000
   O     34.22000000    70.42000000    32.36000000
   H     32.43000000    71.22000000    31.28000000
   H     34.55000000    72.35000000    29.96000000
   H     34.31000000    70.71000000    29.23000000
   N     36.17000000    70.74000000    31.45000000
   C     37.03000000    71.24000000    30.40000000
   C     37.08000000    72.75000000    30.32000000
   O     37.26000000    73.18000000    29.18000000
   C     38.48000000    70.79000000    30.55000000
   C     39.26000000    71.00000000    31.85000000
   O     38.65000000    71.38000000    32.87000000
   O     40.48000000    70.75000000    31.89000000
   H     36.57000000    70.32000000    32.28000000
   H     36.67000000    70.98000000    29.40000000
   H     39.04000000    71.31000000    29.78000000
   H     38.55000000    69.73000000    30.30000000
   N     36.65000000    73.48000000    31.35000000
   C     36.25000000    74.87000000    31.42000000
   C     37.38000000    75.85000000    31.14000000
   O     37.21000000    76.89000000    30.51000000
   H     36.49000000    72.97000000    32.21000000
   H     35.88000000    75.11000000    32.42000000
   H     35.53000000    75.09000000    30.63000000
   N     38.60000000    75.55000000    31.60000000
   C     39.63000000    76.58000000    31.63000000
   C     39.95000000    76.96000000    30.19000000
   O     40.34000000    76.13000000    29.38000000
   C     40.93000000    76.22000000    32.33000000
   C     41.57000000    74.88000000    31.98000000
   O     40.62000000    76.29000000    33.71000000
   H     38.66000000    74.72000000    32.16000000
   H     39.24000000    77.46000000    32.14000000
   H     41.60000000    77.05000000    32.11000000
   H     40.40000000    75.43000000    34.07000000
   H     42.09000000    74.95000000    31.02000000
   H     42.16000000    74.56000000    32.83000000
   H     40.77000000    74.15000000    31.91000000
   N     39.96000000    78.25000000    29.82000000
   C     39.71000000    78.82000000    28.52000000
   C     41.00000000    79.25000000    27.83000000
   O     41.12000000    80.36000000    27.33000000
   C     38.57000000    79.85000000    28.51000000
   C     38.08000000    80.30000000    27.14000000
   C     38.62000000    81.06000000    29.43000000
   C     37.85000000    79.14000000    26.17000000
   H     39.98000000    78.91000000    30.59000000
   H     39.31000000    78.01000000    27.91000000
   H     37.82000000    79.17000000    28.91000000
   H     38.79000000    80.94000000    26.62000000
   H     37.13000000    80.82000000    27.24000000
   H     39.15000000    80.81000000    30.35000000
   H     39.28000000    81.81000000    29.01000000
   H     37.64000000    81.43000000    29.75000000
   H     37.11000000    78.48000000    26.63000000
   H     37.47000000    79.47000000    25.20000000
   H     38.77000000    78.61000000    25.97000000
   N     42.00000000    78.37000000    27.87000000
   C     43.28000000    78.49000000    27.21000000
   C     43.27000000    78.87000000    25.74000000
   O     44.11000000    79.68000000    25.36000000
   C     44.07000000    77.19000000    27.34000000
   C     43.32000000    75.93000000    26.92000000
   O     44.40000000    76.97000000    28.70000000
   H     41.85000000    77.60000000    28.51000000
   H     43.87000000    79.22000000    27.76000000
   H     45.01000000    77.33000000    26.80000000
   H     45.32000000    76.66000000    28.70000000
   H     43.05000000    76.16000000    25.89000000
   H     43.96000000    75.05000000    26.87000000
   H     42.43000000    75.72000000    27.52000000
   N     42.28000000    78.52000000    24.91000000
   C     42.29000000    78.47000000    23.46000000
   C     43.25000000    77.45000000    22.88000000
   O     44.08000000    76.95000000    23.63000000
   C     42.40000000    79.87000000    22.86000000
   C     41.38000000    80.85000000    23.42000000
   O     42.25000000    79.86000000    21.45000000
   H     41.53000000    78.00000000    25.33000000
   H     41.35000000    78.08000000    23.08000000
   H     43.39000000    80.25000000    23.13000000
   H     42.13000000    80.76000000    21.14000000
   H     41.87000000    81.27000000    24.29000000
   H     41.37000000    81.64000000    22.67000000
   H     40.39000000    80.43000000    23.64000000
   N     43.12000000    77.07000000    21.60000000
   C     44.07000000    76.15000000    21.02000000
   C     43.72000000    74.67000000    20.86000000
   O     44.60000000    73.81000000    20.79000000
   C     44.58000000    76.87000000    19.77000000
   C     45.57000000    78.01000000    19.97000000
   C     46.05000000    78.78000000    18.74000000
   C     47.42000000    79.37000000    19.08000000
   N     48.14000000    79.77000000    17.87000000
   H     42.48000000    77.50000000    20.95000000
   H     44.96000000    76.14000000    21.64000000
   H     43.77000000    77.21000000    19.12000000
   H     45.11000000    76.09000000    19.22000000
   H     46.43000000    77.53000000    20.44000000
   H     45.21000000    78.74000000    20.70000000
   H     45.39000000    79.59000000    18.45000000
   H     46.11000000    78.10000000    17.89000000
   H     48.03000000    78.61000000    19.57000000
   H     47.29000000    80.21000000    19.77000000
   H     47.69000000    80.59000000    17.49000000
   H     49.11000000    79.96000000    18.07000000
   H     48.09000000    79.05000000    17.15000000
   N     42.52000000    74.14000000    20.67000000
   C     41.17000000    74.63000000    20.86000000
   C     40.84000000    75.89000000    20.07000000
   O     40.27000000    76.83000000    20.62000000
   C     40.82000000    74.64000000    22.34000000
   C     40.39000000    73.28000000    22.88000000
   C     39.69000000    73.32000000    24.24000000
   O     38.95000000    74.27000000    24.55000000
   O     39.99000000    72.46000000    25.10000000
   H     42.64000000    73.16000000    20.44000000
   H     40.45000000    73.91000000    20.45000000
   H     39.92000000    75.24000000    22.41000000
   H     41.58000000    74.95000000    23.07000000
   H     41.25000000    72.62000000    22.98000000
   H     39.71000000    72.78000000    22.19000000
   N     41.32000000    75.98000000    18.82000000
   C     41.07000000    76.99000000    17.81000000
   H     40.25700000    77.63700000    18.13800000
   H     41.97000000    77.58600000    17.66100000
   H     40.79400000    76.50700000    16.87300000
   H     41.83000000    75.14000000    18.59000000
  Ca     37.62000000    73.13000000    26.44000000
   O     35.98000000    74.83000000    25.34000000
   H     35.61000000    75.69000000    25.53000000
   H     35.51000000    74.53000000    24.56000000
   O     39.84000000    73.28000000    27.92000000
   H     40.13000000    73.97000000    28.52000000
   H     40.45000000    72.56000000    28.07000000
   O     37.97000000    70.61000000    27.26000000
   H     37.36000000    69.93000000    27.56000000
   H     38.71000000    70.12000000    26.90000000
   O     37.26000000    71.44000000    24.31000000
   H     37.66000000    71.05000000    23.52000000
   H     36.66000000    70.77000000    24.63000000
   O     38.21000000    75.54000000    27.46000000
   H     38.68000000    76.07000000    26.81000000
   H     38.37000000    75.99000000    28.29000000

Ca 1.70



