%chk=loop2.cluster116.chk
%nprocshared=48
%mem=10GB
%nosave
#b3lyp/svp scf=(tight,noincore) Test 
#IOP(5/87=12) Density=Current Pop=(MK,readradii) iop(6/33=2) iop(6/42=6)

loop2.cluster116 

   -2  1 
   C     51.29000000    45.44000000    15.58000000
   C     52.40000000    44.97000000    14.66000000
   O     53.36000000    45.69000000    14.42000000
   H     50.38800000    44.85900000    15.38700000
   H     51.59500000    45.30200000    16.61800000
   H     51.08800000    46.49500000    15.39700000
   N     52.28000000    43.77000000    14.07000000
   C     53.39000000    43.19000000    13.35000000
   C     53.60000000    43.73000000    11.94000000
   O     52.64000000    43.63000000    11.18000000
   C     53.32000000    41.67000000    13.23000000
   C     54.56000000    40.94000000    12.75000000
   O     55.67000000    41.52000000    12.74000000
   O     54.49000000    39.74000000    12.41000000
   H     51.45000000    43.24000000    14.31000000
   H     54.35000000    43.45000000    13.80000000
   H     52.48000000    41.43000000    12.58000000
   H     53.10000000    41.20000000    14.19000000
   N     54.77000000    44.31000000    11.66000000
   C     54.91000000    45.03000000    10.41000000
   C     55.79000000    44.25000000     9.44000000
   O     55.92000000    44.62000000     8.28000000
   C     55.47000000    46.38000000    10.87000000
   H     55.47000000    44.53000000    12.36000000
   H     54.00000000    45.26000000     9.86000000
   H     54.82000000    46.83000000    11.62000000
   H     56.51000000    46.24000000    11.19000000
   H     55.48000000    47.07000000    10.03000000
   N     56.43000000    43.14000000     9.82000000
   C     57.16000000    42.23000000     8.96000000
   C     56.44000000    40.92000000     8.65000000
   O     56.84000000    40.31000000     7.67000000
   C     58.49000000    41.88000000     9.62000000
   C     59.11000000    43.02000000    10.42000000
   O     58.80000000    43.06000000    11.64000000
   O     59.79000000    43.94000000     9.94000000
   H     56.31000000    42.83000000    10.77000000
   H     57.35000000    42.76000000     8.03000000
   H     59.22000000    41.54000000     8.90000000
   H     58.36000000    40.99000000    10.24000000
   N     55.49000000    40.37000000     9.42000000
   C     54.86000000    39.10000000     9.13000000
   C     55.78000000    38.00000000     9.63000000
   O     56.12000000    37.12000000     8.84000000
   H     55.27000000    40.83000000    10.29000000
   H     54.62000000    38.97000000     8.07000000
   H     53.95000000    38.89000000     9.69000000
   N     56.36000000    38.18000000    10.82000000
   C     57.20000000    37.15000000    11.39000000
   C     56.54000000    36.53000000    12.61000000
   O     56.94000000    35.41000000    12.94000000
   C     58.61000000    37.71000000    11.59000000
   C     58.65000000    38.39000000    12.95000000
   N     59.36000000    37.83000000    13.94000000
   O     58.04000000    39.43000000    13.17000000
   H     56.07000000    38.96000000    11.39000000
   H     57.41000000    36.28000000    10.76000000
   H     59.07000000    38.28000000    10.79000000
   H     59.20000000    36.81000000    11.75000000
   H     59.77000000    36.92000000    13.85000000
   H     59.24000000    38.10000000    14.91000000
   N     55.56000000    37.16000000    13.26000000
   C     54.88000000    36.53000000    14.37000000
   C     55.44000000    36.81000000    15.76000000
   O     55.00000000    36.20000000    16.73000000
   H     55.28000000    38.10000000    13.01000000
   H     54.84000000    35.46000000    14.19000000
   H     53.84000000    36.85000000    14.42000000
   N     56.46000000    37.66000000    15.88000000
   C     56.94000000    38.12000000    17.16000000
   C     57.33000000    39.59000000    17.10000000
   O     57.69000000    40.14000000    16.07000000
   C     58.17000000    37.38000000    17.70000000
   C     58.02000000    35.89000000    17.98000000
   O     59.16000000    37.33000000    16.70000000
   H     56.90000000    37.98000000    15.02000000
   H     56.13000000    38.01000000    17.88000000
   H     58.52000000    37.89000000    18.60000000
   H     59.87000000    36.80000000    17.08000000
   H     57.35000000    35.76000000    18.83000000
   H     57.60000000    35.42000000    17.09000000
   H     59.00000000    35.43000000    18.13000000
   N     57.06000000    40.24000000    18.24000000
   C     57.39000000    41.62000000    18.52000000
   C     58.86000000    41.85000000    18.84000000
   O     59.47000000    41.17000000    19.65000000
   C     56.67000000    42.16000000    19.75000000
   C     55.39000000    41.41000000    20.11000000
   C     56.40000000    43.64000000    19.47000000
   C     54.77000000    41.85000000    21.44000000
   H     56.55000000    39.70000000    18.92000000
   H     57.19000000    42.25000000    17.66000000
   H     57.30000000    42.09000000    20.64000000
   H     55.69000000    40.39000000    20.33000000
   H     54.64000000    41.36000000    19.31000000
   H     57.32000000    44.07000000    19.06000000
   H     55.49000000    43.72000000    18.88000000
   H     56.22000000    44.13000000    20.43000000
   H     54.38000000    42.86000000    21.37000000
   H     53.92000000    41.24000000    21.73000000
   H     55.39000000    41.75000000    22.33000000
   N     59.44000000    42.84000000    18.16000000
   C     60.77000000    43.38000000    18.35000000
   C     60.73000000    44.73000000    19.05000000
   O     59.71000000    45.40000000    19.04000000
   C     61.48000000    43.43000000    16.99000000
   C     60.68000000    44.09000000    15.88000000
   O     61.10000000    45.18000000    15.43000000
   O     59.68000000    43.52000000    15.39000000
   H     58.95000000    43.17000000    17.34000000
   H     61.41000000    42.72000000    18.93000000
   H     61.67000000    42.42000000    16.63000000
   H     62.45000000    43.91000000    17.13000000
   N     61.86000000    45.15000000    19.64000000
   C     61.94000000    46.42000000    20.33000000
   C     61.63000000    47.58000000    19.41000000
   O     60.96000000    48.48000000    19.91000000
   C     63.27000000    46.50000000    21.08000000
   C     63.34000000    47.60000000    22.11000000
   C     64.27000000    48.63000000    21.89000000
   C     62.44000000    47.76000000    23.17000000
   C     64.43000000    49.60000000    22.89000000
   C     62.49000000    48.86000000    24.03000000
   C     63.49000000    49.83000000    23.90000000
   H     62.70000000    44.65000000    19.41000000
   H     61.13000000    46.47000000    21.06000000
   H     64.13000000    46.58000000    20.40000000
   H     63.41000000    45.56000000    21.61000000
   H     64.92000000    48.54000000    21.04000000
   H     61.68000000    47.01000000    23.32000000
   H     65.20000000    50.34000000    22.72000000
   H     61.72000000    48.91000000    24.80000000
   H     63.63000000    50.74000000    24.46000000
   N     62.02000000    47.72000000    18.14000000
   C     61.59000000    48.82000000    17.29000000
   C     60.12000000    48.77000000    16.91000000
   O     59.48000000    49.82000000    16.88000000
   C     62.55000000    48.86000000    16.11000000
   C     63.83000000    48.23000000    16.65000000
   C     63.22000000    47.16000000    17.55000000
   H     61.67000000    49.75000000    17.86000000
   H     62.01000000    48.27000000    15.37000000
   H     62.82000000    49.83000000    15.68000000
   H     64.38000000    47.75000000    15.84000000
   H     64.46000000    48.84000000    17.30000000
   H     62.89000000    46.32000000    16.94000000
   H     63.95000000    46.81000000    18.28000000
   N     59.46000000    47.61000000    16.82000000
   C     58.04000000    47.54000000    16.51000000
   C     57.15000000    47.88000000    17.69000000
   O     56.12000000    48.54000000    17.54000000
   C     57.72000000    46.14000000    15.99000000
   C     56.30000000    45.65000000    15.77000000
   C     56.35000000    44.40000000    14.91000000
   O     56.70000000    44.43000000    13.71000000
   O     56.28000000    43.27000000    15.44000000
   H     59.94000000    46.74000000    16.98000000
   H     57.79000000    48.18000000    15.67000000
   H     58.27000000    45.40000000    16.57000000
   H     58.22000000    46.06000000    15.03000000
   H     55.68000000    46.39000000    15.26000000
   H     55.76000000    45.47000000    16.70000000
   N     57.54000000    47.43000000    18.89000000
   C     56.90000000    47.82000000    20.13000000
   H     55.89100000    47.40900000    20.16200000
   H     57.47500000    47.43600000    20.97300000
   H     56.85100000    48.90700000    20.18800000
   H     58.38000000    46.87000000    18.89000000
  Ca     57.97000000    42.09000000    14.00000000
   O     60.54000000    41.19000000    14.03000000
   H     60.67000000    40.24000000    14.03000000
   H     61.42000000    41.55000000    14.17000000

Ca 1.70



