%chk=loop1.cluster124.chk
%nprocshared=48
%mem=10GB
%nosave
#b3lyp/svp scf=(tight,noincore) Test 
#IOP(5/87=12) Density=Current Pop=(MK,readradii) iop(6/33=2) iop(6/42=6)

loop1.cluster124 

   0  1 
   C     65.40000000    37.54000000    47.77000000
   C     64.33000000    37.44000000    46.69000000
   O     63.18000000    37.86000000    46.83000000
   H     66.24900000    38.10700000    47.38800000
   H     64.98900000    38.04600000    48.64300000
   H     65.72900000    36.53900000    48.05100000
   N     64.63000000    36.83000000    45.55000000
   C     63.70000000    36.31000000    44.56000000
   C     64.23000000    34.97000000    44.08000000
   O     65.41000000    34.72000000    44.34000000
   C     63.65000000    37.29000000    43.38000000
   C     62.73000000    36.84000000    42.26000000
   O     61.79000000    36.02000000    42.24000000
   O     62.81000000    37.51000000    41.21000000
   H     65.58000000    36.59000000    45.32000000
   H     62.71000000    36.22000000    44.99000000
   H     64.66000000    37.38000000    42.97000000
   H     63.47000000    38.31000000    43.72000000
   N     63.40000000    34.12000000    43.47000000
   C     63.59000000    32.73000000    43.09000000
   C     64.91000000    32.48000000    42.38000000
   O     65.70000000    31.63000000    42.77000000
   C     62.42000000    32.28000000    42.22000000
   C     62.52000000    30.82000000    41.78000000
   C     62.87000000    29.81000000    42.87000000
   C     62.71000000    28.34000000    42.49000000
   N     62.93000000    27.54000000    43.71000000
   H     62.58000000    34.61000000    43.15000000
   H     63.58000000    32.13000000    43.99000000
   H     62.24000000    32.89000000    41.33000000
   H     61.46000000    32.42000000    42.71000000
   H     63.25000000    30.75000000    40.96000000
   H     61.64000000    30.42000000    41.29000000
   H     62.24000000    29.90000000    43.75000000
   H     63.91000000    29.97000000    43.17000000
   H     63.38000000    27.94000000    41.73000000
   H     61.69000000    28.16000000    42.18000000
   H     62.25000000    27.75000000    44.43000000
   H     62.88000000    26.54000000    43.58000000
   H     63.85000000    27.63000000    44.13000000
   N     65.19000000    33.18000000    41.27000000
   C     64.65000000    34.29000000    40.52000000
   C     65.74000000    35.33000000    40.34000000
   O     66.89000000    34.93000000    40.16000000
   C     64.28000000    33.75000000    39.15000000
   C     63.42000000    34.75000000    38.37000000
   O     64.03000000    35.36000000    37.47000000
   O     62.24000000    35.01000000    38.67000000
   H     66.10000000    32.97000000    40.88000000
   H     63.80000000    34.72000000    41.06000000
   H     63.65000000    32.86000000    39.25000000
   H     65.16000000    33.41000000    38.60000000
   N     65.43000000    36.63000000    40.41000000
   C     66.49000000    37.60000000    40.57000000
   C     66.17000000    39.02000000    40.11000000
   O     66.37000000    39.95000000    40.88000000
   H     64.48000000    36.96000000    40.48000000
   H     67.25000000    37.19000000    39.91000000
   H     66.84000000    37.62000000    41.60000000
   N     65.41000000    39.09000000    39.02000000
   C     65.05000000    40.33000000    38.35000000
   C     66.08000000    40.79000000    37.33000000
   O     66.38000000    40.04000000    36.41000000
   C     63.67000000    40.22000000    37.71000000
   C     62.54000000    39.82000000    38.66000000
   O     62.16000000    40.58000000    39.58000000
   O     62.01000000    38.70000000    38.53000000
   H     65.11000000    38.24000000    38.57000000
   H     65.00000000    41.10000000    39.12000000
   H     63.75000000    39.54000000    36.86000000
   H     63.46000000    41.12000000    37.15000000
   N     66.56000000    42.04000000    37.32000000
   C     66.32000000    43.11000000    38.26000000
   C     65.30000000    44.12000000    37.75000000
   O     64.82000000    44.99000000    38.48000000
   H     67.15000000    42.25000000    36.53000000
   H     67.24000000    43.69000000    38.27000000
   H     66.02000000    42.73000000    39.24000000
   N     65.08000000    44.00000000    36.44000000
   C     64.33000000    44.95000000    35.64000000
   C     64.86000000    46.37000000    35.56000000
   O     64.43000000    47.29000000    36.25000000
   C     62.85000000    44.94000000    36.03000000
   C     62.14000000    43.59000000    35.97000000
   O     62.05000000    45.71000000    35.15000000
   H     65.64000000    43.27000000    36.03000000
   H     64.24000000    44.66000000    34.59000000
   H     62.80000000    45.33000000    37.05000000
   H     62.08000000    46.57000000    35.57000000
   H     62.38000000    42.94000000    36.81000000
   H     61.07000000    43.72000000    36.12000000
   H     62.33000000    43.10000000    35.01000000
   N     65.98000000    46.43000000    34.84000000
   C     66.95000000    47.50000000    34.69000000
   C     66.40000000    48.77000000    34.06000000
   O     67.08000000    49.39000000    33.25000000
   C     67.54000000    47.80000000    36.06000000
   C     68.46000000    46.65000000    36.47000000
   C     68.36000000    49.08000000    36.20000000
   C     68.69000000    46.59000000    37.98000000
   H     66.20000000    45.53000000    34.44000000
   H     67.72000000    47.18000000    33.99000000
   H     66.71000000    48.02000000    36.72000000
   H     69.43000000    46.79000000    35.99000000
   H     68.13000000    45.66000000    36.15000000
   H     67.76000000    49.94000000    35.91000000
   H     68.71000000    49.16000000    37.23000000
   H     69.24000000    49.07000000    35.54000000
   H     67.77000000    46.33000000    38.49000000
   H     69.47000000    45.89000000    38.27000000
   H     68.99000000    47.55000000    38.40000000
   N     65.17000000    49.20000000    34.35000000
   C     64.62000000    50.45000000    33.86000000
   C     64.20000000    51.39000000    34.99000000
   O     63.98000000    50.94000000    36.11000000
   C     63.49000000    50.27000000    32.85000000
   C     62.20000000    49.72000000    33.45000000
   O     63.99000000    49.28000000    31.99000000
   H     64.65000000    48.59000000    34.96000000
   H     65.38000000    50.95000000    33.26000000
   H     63.33000000    51.24000000    32.37000000
   H     64.27000000    48.52000000    32.52000000
   H     61.92000000    50.36000000    34.28000000
   H     61.40000000    49.87000000    32.72000000
   H     62.32000000    48.70000000    33.81000000
   N     64.07000000    52.67000000    34.65000000
   C     63.71000000    53.69000000    35.62000000
   C     62.28000000    53.58000000    36.12000000
   O     61.32000000    53.48000000    35.36000000
   C     63.88000000    55.02000000    34.88000000
   C     63.29000000    56.28000000    35.50000000
   O     65.24000000    55.34000000    35.01000000
   H     64.06000000    53.02000000    33.70000000
   H     64.30000000    53.73000000    36.53000000
   H     63.56000000    54.92000000    33.84000000
   H     65.66000000    54.51000000    35.24000000
   H     62.22000000    56.32000000    35.28000000
   H     63.63000000    56.45000000    36.52000000
   H     63.70000000    57.18000000    35.03000000
   N     62.07000000    53.83000000    37.41000000
   C     60.85000000    53.59000000    38.17000000
   C     60.26000000    52.23000000    37.82000000
   O     59.19000000    52.22000000    37.21000000
   C     59.94000000    54.80000000    37.97000000
   C     60.37000000    56.19000000    38.45000000
   C     59.44000000    57.29000000    37.94000000
   C     58.16000000    57.35000000    38.77000000
   N     57.19000000    58.26000000    38.13000000
   H     62.88000000    54.14000000    37.93000000
   H     61.07000000    53.55000000    39.23000000
   H     59.13000000    54.56000000    38.65000000
   H     59.64000000    54.79000000    36.93000000
   H     61.38000000    56.39000000    38.09000000
   H     60.51000000    56.15000000    39.53000000
   H     59.18000000    57.18000000    36.89000000
   H     59.90000000    58.28000000    38.02000000
   H     58.37000000    57.67000000    39.79000000
   H     57.79000000    56.33000000    38.81000000
   H     56.35000000    58.36000000    38.68000000
   H     57.65000000    59.15000000    38.02000000
   H     56.87000000    57.88000000    37.25000000
   N     60.78000000    51.11000000    38.31000000
   C     60.25000000    49.79000000    38.03000000
   C     61.31000000    48.72000000    37.83000000
   O     60.94000000    47.87000000    37.02000000
   C     59.18000000    49.40000000    39.05000000
   C     58.00000000    48.57000000    38.56000000
   C     56.96000000    48.42000000    39.67000000
   O     55.98000000    49.19000000    39.64000000
   O     57.04000000    47.52000000    40.53000000
   H     61.59000000    51.32000000    38.88000000
   H     59.76000000    49.76000000    37.05000000
   H     58.72000000    50.31000000    39.44000000
   H     59.64000000    48.91000000    39.90000000
   H     58.26000000    47.57000000    38.23000000
   H     57.60000000    49.13000000    37.71000000
   N     62.53000000    48.61000000    38.37000000
   C     63.23000000    49.65000000    39.10000000
   H     64.15100000    49.90400000    38.57500000
   H     62.59700000    50.53400000    39.17000000
   H     63.47000000    49.29300000    40.10200000
   H     63.02000000    47.79000000    38.06000000
  Ca     60.65000000    36.65000000    39.70000000
   O     60.12000000    39.12000000    40.71000000
   H     60.93000000    39.57000000    40.49000000
   H     59.57000000    39.80000000    41.12000000
   O     58.46000000    36.67000000    41.31000000
   H     57.93000000    37.47000000    41.37000000
   H     58.19000000    36.14000000    42.06000000
   O     59.06000000    37.17000000    37.63000000
   H     58.48000000    36.46000000    37.34000000
   H     58.73000000    37.95000000    37.18000000
   O     59.77000000    34.13000000    40.17000000
   H     60.05000000    33.38000000    39.66000000
   H     59.13000000    33.76000000    40.79000000

Ca 1.70



