%chk=loop1.cluster70.chk
%nprocshared=48
%mem=10GB
%nosave
#b3lyp/svp scf=(tight,noincore) Test 
#IOP(5/87=12) Density=Current Pop=(MK,readradii) iop(6/33=2) iop(6/42=6)

loop1.cluster70 

   0  1 
   C     65.48000000    37.23000000    47.92000000
   C     64.43000000    36.94000000    46.85000000
   O     63.29000000    37.37000000    47.04000000
   H     66.33600000    37.72600000    47.46300000
   H     65.05100000    37.87800000    48.68400000
   H     65.80300000    36.29400000    48.37600000
   N     64.70000000    36.34000000    45.69000000
   C     63.77000000    35.96000000    44.65000000
   C     64.11000000    34.55000000    44.18000000
   O     65.29000000    34.20000000    44.19000000
   C     64.06000000    36.99000000    43.56000000
   C     62.90000000    37.20000000    42.60000000
   O     61.81000000    36.62000000    42.74000000
   O     63.22000000    37.65000000    41.47000000
   H     65.68000000    36.09000000    45.62000000
   H     62.72000000    35.96000000    44.94000000
   H     64.94000000    36.66000000    43.01000000
   H     64.30000000    37.97000000    43.98000000
   N     63.12000000    33.84000000    43.65000000
   C     63.14000000    32.46000000    43.21000000
   C     64.34000000    31.96000000    42.41000000
   O     64.88000000    30.92000000    42.79000000
   C     61.93000000    32.06000000    42.36000000
   C     61.78000000    30.60000000    41.93000000
   C     61.89000000    29.50000000    42.99000000
   C     61.48000000    28.07000000    42.62000000
   N     61.88000000    27.15000000    43.70000000
   H     62.26000000    34.36000000    43.51000000
   H     63.10000000    31.91000000    44.15000000
   H     61.85000000    32.74000000    41.52000000
   H     61.03000000    32.21000000    42.95000000
   H     62.57000000    30.42000000    41.21000000
   H     60.78000000    30.47000000    41.53000000
   H     61.28000000    29.72000000    43.87000000
   H     62.93000000    29.56000000    43.28000000
   H     61.97000000    27.72000000    41.72000000
   H     60.40000000    27.99000000    42.49000000
   H     61.35000000    27.27000000    44.55000000
   H     61.72000000    26.20000000    43.41000000
   H     62.82000000    27.17000000    44.06000000
   N     64.91000000    32.63000000    41.41000000
   C     64.48000000    33.84000000    40.75000000
   C     65.63000000    34.83000000    40.63000000
   O     66.78000000    34.43000000    40.44000000
   C     63.94000000    33.34000000    39.41000000
   C     63.34000000    34.46000000    38.58000000
   O     63.73000000    34.45000000    37.40000000
   O     62.73000000    35.38000000    39.18000000
   H     65.81000000    32.34000000    41.07000000
   H     63.67000000    34.30000000    41.32000000
   H     63.16000000    32.58000000    39.52000000
   H     64.77000000    32.86000000    38.89000000
   N     65.29000000    36.12000000    40.53000000
   C     66.27000000    37.18000000    40.57000000
   C     65.85000000    38.62000000    40.32000000
   O     66.24000000    39.49000000    41.10000000
   H     64.32000000    36.39000000    40.41000000
   H     67.05000000    37.10000000    39.81000000
   H     66.64000000    37.16000000    41.59000000
   N     65.06000000    38.97000000    39.30000000
   C     64.89000000    40.31000000    38.78000000
   C     66.08000000    40.80000000    37.97000000
   O     66.46000000    40.08000000    37.05000000
   C     63.62000000    40.33000000    37.93000000
   C     62.32000000    40.23000000    38.71000000
   O     61.87000000    41.16000000    39.40000000
   O     61.70000000    39.14000000    38.75000000
   H     64.91000000    38.24000000    38.62000000
   H     64.74000000    40.92000000    39.67000000
   H     63.70000000    39.52000000    37.21000000
   H     63.56000000    41.26000000    37.37000000
   N     66.66000000    41.99000000    38.14000000
   C     66.30000000    43.08000000    39.02000000
   C     65.34000000    44.09000000    38.42000000
   O     64.72000000    44.86000000    39.15000000
   H     67.41000000    42.19000000    37.49000000
   H     67.24000000    43.56000000    39.29000000
   H     65.93000000    42.71000000    39.98000000
   N     65.12000000    43.98000000    37.11000000
   C     64.42000000    44.88000000    36.22000000
   C     65.19000000    46.19000000    36.15000000
   O     64.83000000    47.26000000    36.64000000
   C     62.95000000    45.10000000    36.59000000
   C     62.15000000    43.81000000    36.71000000
   O     62.36000000    45.84000000    35.55000000
   H     65.42000000    43.14000000    36.63000000
   H     64.40000000    44.48000000    35.21000000
   H     62.80000000    45.59000000    37.55000000
   H     62.25000000    46.71000000    35.94000000
   H     62.34000000    43.32000000    37.66000000
   H     61.10000000    44.11000000    36.73000000
   H     62.34000000    43.11000000    35.89000000
   N     66.39000000    46.09000000    35.57000000
   C     67.42000000    47.09000000    35.42000000
   C     66.96000000    48.24000000    34.53000000
   O     67.71000000    48.60000000    33.63000000
   C     67.99000000    47.47000000    36.78000000
   C     68.31000000    46.29000000    37.69000000
   C     69.21000000    48.35000000    36.52000000
   C     69.11000000    46.71000000    38.92000000
   H     66.61000000    45.17000000    35.20000000
   H     68.22000000    46.58000000    34.88000000
   H     67.26000000    48.13000000    37.24000000
   H     68.83000000    45.53000000    37.10000000
   H     67.33000000    45.86000000    37.93000000
   H     69.13000000    49.11000000    35.74000000
   H     69.58000000    48.83000000    37.42000000
   H     70.00000000    47.72000000    36.11000000
   H     68.53000000    47.55000000    39.31000000
   H     69.15000000    45.99000000    39.74000000
   H     70.09000000    47.12000000    38.68000000
   N     65.83000000    48.90000000    34.80000000
   C     65.29000000    50.06000000    34.12000000
   C     64.89000000    51.18000000    35.07000000
   O     64.84000000    50.92000000    36.27000000
   C     64.10000000    49.65000000    33.27000000
   C     62.87000000    49.15000000    34.02000000
   O     64.31000000    48.79000000    32.17000000
   H     65.34000000    48.38000000    35.51000000
   H     66.03000000    50.39000000    33.39000000
   H     63.78000000    50.57000000    32.77000000
   H     64.47000000    47.92000000    32.54000000
   H     62.23000000    48.57000000    33.36000000
   H     63.20000000    48.47000000    34.81000000
   H     62.37000000    50.03000000    34.42000000
   N     64.58000000    52.39000000    34.58000000
   C     64.11000000    53.50000000    35.39000000
   C     62.71000000    53.34000000    35.97000000
   O     61.76000000    53.01000000    35.27000000
   C     64.23000000    54.69000000    34.45000000
   C     63.65000000    56.01000000    34.93000000
   O     65.59000000    55.00000000    34.23000000
   H     64.60000000    52.58000000    33.59000000
   H     64.81000000    53.65000000    36.21000000
   H     63.77000000    54.51000000    33.48000000
   H     66.11000000    54.47000000    34.84000000
   H     62.59000000    55.84000000    34.79000000
   H     64.06000000    56.13000000    35.94000000
   H     63.92000000    56.78000000    34.21000000
   N     62.45000000    53.79000000    37.20000000
   C     61.23000000    53.62000000    37.97000000
   C     60.52000000    52.29000000    37.77000000
   O     59.38000000    52.16000000    37.33000000
   C     60.31000000    54.78000000    37.60000000
   C     60.74000000    56.21000000    37.92000000
   C     59.66000000    57.25000000    37.60000000
   C     58.70000000    57.30000000    38.79000000
   N     57.65000000    58.30000000    38.55000000
   H     63.20000000    54.32000000    37.62000000
   H     61.40000000    53.77000000    39.04000000
   H     59.34000000    54.56000000    38.05000000
   H     60.24000000    54.78000000    36.51000000
   H     61.61000000    56.55000000    37.37000000
   H     60.82000000    56.30000000    39.01000000
   H     59.13000000    56.90000000    36.72000000
   H     60.02000000    58.25000000    37.36000000
   H     59.29000000    57.67000000    39.62000000
   H     58.29000000    56.29000000    38.89000000
   H     57.05000000    58.49000000    39.34000000
   H     58.01000000    59.23000000    38.40000000
   H     57.01000000    58.10000000    37.80000000
   N     61.23000000    51.21000000    38.10000000
   C     60.77000000    49.84000000    38.08000000
   C     61.86000000    48.79000000    37.92000000
   O     61.63000000    47.90000000    37.11000000
   C     59.94000000    49.51000000    39.32000000
   C     58.83000000    48.62000000    38.74000000
   C     58.09000000    47.97000000    39.90000000
   O     57.23000000    48.71000000    40.42000000
   O     58.18000000    46.75000000    40.19000000
   H     62.17000000    51.45000000    38.39000000
   H     60.23000000    49.76000000    37.14000000
   H     59.51000000    50.41000000    39.76000000
   H     60.43000000    49.06000000    40.18000000
   H     59.12000000    47.88000000    38.00000000
   H     58.05000000    49.18000000    38.23000000
   N     63.09000000    48.90000000    38.43000000
   C     63.70000000    49.94000000    39.24000000
   H     64.61900000    50.28000000    38.76200000
   H     63.01000000    50.77800000    39.33700000
   H     63.93100000    49.54300000    40.22800000
   H     63.68000000    48.35000000    37.81000000
  Ca     60.99000000    37.20000000    40.21000000
   O     60.49000000    39.54000000    41.22000000
   H     61.04000000    39.89000000    40.52000000
   H     59.91000000    40.27000000    41.45000000
   O     58.53000000    37.65000000    41.32000000
   H     58.00000000    38.37000000    41.67000000
   H     57.99000000    36.87000000    41.44000000
   O     59.37000000    37.08000000    38.12000000
   H     59.48000000    36.57000000    37.31000000
   H     58.45000000    37.34000000    38.11000000
   O     59.97000000    34.82000000    40.53000000
   H     60.17000000    33.98000000    40.11000000
   H     59.39000000    34.60000000    41.25000000

Ca 1.70



