%chk=loop2.cluster64.chk
%nprocshared=48
%mem=10GB
%nosave
#b3lyp/svp scf=(tight,noincore) Test 
#IOP(5/87=12) Density=Current Pop=(MK,readradii) iop(6/33=2) iop(6/42=6)

loop2.cluster64 

   -2  1 
   C     56.23000000    35.30000000    25.17000000
   C     55.92000000    35.04000000    23.70000000
   O     54.96000000    34.36000000    23.33000000
   H     57.02800000    36.03800000    25.24700000
   H     55.33700000    35.67700000    25.66900000
   H     56.54800000    34.37200000    25.64500000
   N     56.74000000    35.51000000    22.76000000
   C     56.41000000    35.87000000    21.40000000
   C     56.45000000    34.68000000    20.45000000
   O     55.51000000    34.39000000    19.72000000
   C     57.31000000    37.05000000    21.06000000
   C     57.07000000    37.61000000    19.66000000
   O     57.89000000    38.41000000    19.16000000
   O     56.01000000    37.29000000    19.10000000
   H     57.53000000    35.98000000    23.19000000
   H     55.37000000    36.19000000    21.41000000
   H     58.34000000    36.73000000    20.90000000
   H     57.34000000    37.87000000    21.79000000
   N     57.49000000    33.84000000    20.58000000
   C     57.84000000    32.66000000    19.82000000
   C     56.87000000    31.50000000    19.82000000
   O     56.88000000    30.71000000    18.87000000
   C     58.24000000    33.15000000    18.42000000
   H     58.09000000    34.14000000    21.33000000
   H     58.68000000    32.22000000    20.35000000
   H     57.42000000    33.61000000    17.88000000
   H     59.06000000    33.86000000    18.56000000
   H     58.61000000    32.31000000    17.83000000
   N     55.94000000    31.33000000    20.76000000
   C     54.99000000    30.23000000    20.71000000
   C     54.12000000    30.32000000    19.47000000
   O     53.96000000    29.30000000    18.81000000
   C     55.61000000    28.87000000    21.01000000
   C     56.27000000    28.86000000    22.39000000
   O     57.37000000    29.43000000    22.57000000
   O     55.61000000    28.28000000    23.28000000
   H     56.03000000    31.92000000    21.57000000
   H     54.37000000    30.36000000    21.60000000
   H     56.33000000    28.45000000    20.31000000
   H     54.79000000    28.16000000    21.09000000
   N     53.71000000    31.53000000    19.07000000
   C     52.81000000    31.84000000    17.98000000
   C     51.40000000    31.28000000    17.98000000
   O     50.48000000    31.98000000    17.56000000
   H     54.00000000    32.34000000    19.59000000
   H     53.30000000    31.50000000    17.06000000
   H     52.76000000    32.92000000    17.79000000
   N     51.22000000    30.02000000    18.39000000
   C     49.91000000    29.41000000    18.48000000
   C     49.07000000    29.93000000    19.63000000
   O     49.60000000    30.00000000    20.74000000
   C     49.95000000    27.89000000    18.39000000
   C     48.60000000    27.22000000    18.63000000
   N     48.34000000    26.75000000    19.85000000
   O     47.64000000    27.37000000    17.88000000
   H     52.02000000    29.45000000    18.65000000
   H     49.38000000    29.75000000    17.59000000
   H     50.75000000    27.53000000    19.03000000
   H     50.33000000    27.61000000    17.41000000
   H     49.05000000    26.86000000    20.56000000
   H     47.52000000    26.18000000    20.02000000
   N     47.89000000    30.49000000    19.33000000
   C     46.97000000    31.12000000    20.25000000
   C     47.40000000    32.54000000    20.59000000
   O     46.61000000    33.48000000    20.71000000
   H     47.58000000    30.33000000    18.38000000
   H     47.06000000    30.56000000    21.18000000
   H     45.95000000    31.09000000    19.87000000
   N     48.69000000    32.80000000    20.80000000
   C     49.26000000    34.07000000    21.19000000
   C     49.22000000    34.29000000    22.69000000
   O     49.04000000    33.32000000    23.43000000
   C     50.68000000    34.19000000    20.63000000
   C     51.52000000    35.40000000    21.02000000
   O     51.46000000    33.09000000    21.02000000
   H     49.37000000    32.06000000    20.65000000
   H     48.65000000    34.80000000    20.65000000
   H     50.60000000    34.10000000    19.55000000
   H     51.84000000    33.25000000    21.89000000
   H     52.04000000    35.20000000    21.95000000
   H     52.30000000    35.58000000    20.27000000
   H     50.91000000    36.30000000    21.17000000
   N     49.20000000    35.50000000    23.25000000
   C     49.30000000    35.79000000    24.67000000
   C     50.44000000    35.05000000    25.35000000
   O     51.51000000    34.93000000    24.74000000
   C     49.41000000    37.30000000    24.86000000
   C     49.69000000    37.75000000    26.29000000
   C     50.39000000    37.95000000    23.89000000
   C     48.97000000    39.03000000    26.70000000
   H     49.30000000    36.26000000    22.60000000
   H     48.35000000    35.39000000    25.04000000
   H     48.44000000    37.67000000    24.54000000
   H     50.77000000    37.86000000    26.40000000
   H     49.37000000    37.06000000    27.06000000
   H     51.39000000    37.52000000    23.97000000
   H     50.12000000    38.07000000    22.84000000
   H     50.44000000    38.97000000    24.28000000
   H     49.47000000    39.92000000    26.33000000
   H     47.94000000    39.05000000    26.35000000
   H     48.88000000    39.11000000    27.79000000
   N     50.19000000    34.38000000    26.47000000
   C     50.97000000    33.22000000    26.85000000
   C     50.25000000    31.88000000    26.81000000
   O     50.46000000    30.97000000    27.61000000
   C     51.78000000    33.51000000    28.11000000
   C     52.69000000    32.39000000    28.59000000
   O     53.42000000    31.84000000    27.75000000
   O     52.72000000    32.13000000    29.81000000
   H     49.31000000    34.57000000    26.92000000
   H     51.76000000    33.05000000    26.11000000
   H     51.08000000    33.74000000    28.91000000
   H     52.43000000    34.39000000    27.99000000
   N     49.36000000    31.71000000    25.83000000
   C     48.42000000    30.61000000    25.71000000
   C     47.06000000    30.65000000    26.37000000
   O     46.71000000    29.59000000    26.89000000
   C     48.31000000    30.37000000    24.20000000
   C     47.17000000    29.49000000    23.75000000
   C     47.35000000    28.11000000    23.61000000
   C     46.02000000    30.18000000    23.36000000
   C     46.31000000    27.39000000    23.01000000
   C     45.01000000    29.43000000    22.74000000
   C     45.12000000    28.04000000    22.64000000
   H     49.30000000    32.44000000    25.14000000
   H     48.80000000    29.64000000    26.03000000
   H     49.21000000    29.86000000    23.85000000
   H     48.15000000    31.31000000    23.66000000
   H     48.25000000    27.63000000    23.98000000
   H     45.99000000    31.25000000    23.47000000
   H     46.37000000    26.33000000    22.81000000
   H     44.05000000    29.85000000    22.48000000
   H     44.30000000    27.46000000    22.24000000
   N     46.26000000    31.72000000    26.27000000
   C     46.64000000    33.08000000    25.92000000
   C     46.87000000    33.83000000    27.22000000
   O     47.27000000    34.99000000    27.20000000
   C     45.45000000    33.70000000    25.19000000
   C     44.30000000    33.00000000    25.91000000
   C     44.82000000    31.62000000    26.32000000
   H     47.54000000    33.15000000    25.30000000
   H     45.49000000    34.77000000    25.36000000
   H     45.38000000    33.34000000    24.17000000
   H     44.05000000    33.51000000    26.83000000
   H     43.51000000    32.80000000    25.18000000
   H     44.44000000    31.41000000    27.32000000
   H     44.48000000    30.93000000    25.55000000
   N     46.70000000    33.14000000    28.35000000
   C     46.61000000    33.71000000    29.67000000
   C     47.95000000    34.14000000    30.26000000
   O     48.84000000    33.29000000    30.31000000
   C     45.93000000    32.69000000    30.57000000
   C     45.70000000    33.10000000    32.03000000
   C     44.74000000    32.12000000    32.67000000
   O     45.18000000    31.02000000    33.06000000
   O     43.53000000    32.42000000    32.78000000
   H     46.39000000    32.19000000    28.21000000
   H     45.99000000    34.58000000    29.45000000
   H     46.47000000    31.74000000    30.52000000
   H     44.96000000    32.46000000    30.13000000
   H     45.46000000    34.16000000    32.12000000
   H     46.71000000    32.98000000    32.44000000
   N     48.05000000    35.39000000    30.72000000
   C     49.33000000    36.02000000    30.96000000
   H     50.05400000    35.66100000    30.22900000
   H     49.22700000    37.10100000    30.86700000
   H     49.67500000    35.77200000    31.96400000
   H     47.19000000    35.92000000    30.62000000
  Ca     54.40000000    28.04000000    25.58000000
   O     56.48000000    26.54000000    26.09000000
   H     56.53000000    25.84000000    26.73000000
   H     57.30000000    26.47000000    25.59000000
   O     52.98000000    26.05000000    26.55000000
   H     52.71000000    25.78000000    27.43000000
   H     52.82000000    25.28000000    26.01000000
   O     54.10000000    30.80000000    25.40000000
   H     53.92000000    31.16000000    26.27000000
   H     54.10000000    31.56000000    24.83000000
   O     52.65000000    29.03000000    27.28000000
   H     51.79000000    28.76000000    27.60000000
   H     52.75000000    29.93000000    27.58000000
   O     56.07000000    29.38000000    27.28000000
   H     55.68000000    29.91000000    27.97000000
   H     57.01000000    29.58000000    27.31000000
   O     54.47000000    25.90000000    23.71000000
   H     54.16000000    25.39000000    22.96000000
   H     54.90000000    26.66000000    23.32000000
   O     52.47000000    28.17000000    23.82000000
   H     51.84000000    27.56000000    23.43000000
   H     52.15000000    29.03000000    23.56000000
   O     54.89000000    27.24000000    28.64000000
   H     54.05000000    27.69000000    28.77000000
   H     55.54000000    27.95000000    28.63000000

Ca 1.70



