%chk=loop1.cluster89.chk
%nprocshared=48
%mem=10GB
%nosave
#b3lyp/svp scf=(tight,noincore) Test 
#IOP(5/87=12) Density=Current Pop=(MK,readradii) iop(6/33=2) iop(6/42=6)

loop1.cluster89 

   0  1 
   C     38.88000000     1.12000000    38.55000000
   C     38.12000000    -0.16000000    38.85000000
   O     37.61000000    -0.90000000    38.01000000
   H     39.84500000     0.87400000    38.10600000
   H     38.30500000     1.73000000    37.85300000
   H     39.03700000     1.67500000    39.47500000
   N     37.85000000    -0.53000000    40.11000000
   C     37.14000000    -1.72000000    40.53000000
   C     35.67000000    -1.34000000    40.58000000
   O     34.98000000    -1.67000000    41.54000000
   C     37.72000000    -2.38000000    41.77000000
   C     37.81000000    -1.44000000    42.97000000
   O     37.45000000    -1.95000000    44.05000000
   O     38.17000000    -0.25000000    42.87000000
   H     38.25000000    -0.02000000    40.88000000
   H     37.27000000    -2.41000000    39.69000000
   H     38.74000000    -2.77000000    41.67000000
   H     37.12000000    -3.24000000    42.06000000
   N     35.06000000    -0.71000000    39.57000000
   C     33.65000000    -0.37000000    39.48000000
   C     33.17000000    -0.65000000    38.07000000
   O     33.45000000     0.12000000    37.15000000
   C     33.36000000     1.07000000    39.92000000
   C     33.41000000     1.33000000    41.42000000
   C     32.79000000     2.69000000    41.72000000
   C     33.00000000     3.05000000    43.19000000
   N     32.38000000     4.37000000    43.40000000
   H     35.58000000    -0.44000000    38.75000000
   H     33.03000000    -0.94000000    40.17000000
   H     32.33000000     1.25000000    39.63000000
   H     33.92000000     1.84000000    39.39000000
   H     34.47000000     1.29000000    41.70000000
   H     32.81000000     0.61000000    41.97000000
   H     31.72000000     2.64000000    41.54000000
   H     33.20000000     3.54000000    41.17000000
   H     34.06000000     3.19000000    43.36000000
   H     32.53000000     2.36000000    43.90000000
   H     32.68000000     4.71000000    44.30000000
   H     32.66000000     5.09000000    42.75000000
   H     31.38000000     4.23000000    43.46000000
   N     32.48000000    -1.76000000    37.79000000
   C     31.94000000    -2.79000000    38.67000000
   C     30.92000000    -2.39000000    39.72000000
   O     30.62000000    -1.20000000    39.86000000
   C     33.04000000    -3.69000000    39.22000000
   C     34.24000000    -3.96000000    38.33000000
   O     34.10000000    -4.53000000    37.23000000
   O     35.42000000    -3.82000000    38.73000000
   H     32.27000000    -1.83000000    36.81000000
   H     31.39000000    -3.50000000    38.05000000
   H     32.63000000    -4.66000000    39.50000000
   H     33.44000000    -3.10000000    40.05000000
   N     30.23000000    -3.23000000    40.48000000
   C     30.19000000    -4.68000000    40.58000000
   C     30.39000000    -5.23000000    41.99000000
   O     29.76000000    -4.77000000    42.93000000
   H     29.63000000    -2.76000000    41.15000000
   H     30.84000000    -5.15000000    39.84000000
   H     29.21000000    -5.09000000    40.36000000
   N     31.32000000    -6.17000000    42.17000000
   C     31.98000000    -7.09000000    41.26000000
   C     33.47000000    -6.84000000    41.09000000
   O     34.18000000    -7.52000000    40.35000000
   C     31.65000000    -8.51000000    41.70000000
   C     31.99000000    -8.75000000    43.17000000
   O     33.13000000    -9.20000000    43.40000000
   O     31.16000000    -8.58000000    44.08000000
   H     31.46000000    -6.29000000    43.17000000
   H     31.54000000    -7.01000000    40.27000000
   H     32.11000000    -9.33000000    41.15000000
   H     30.58000000    -8.64000000    41.56000000
   N     33.92000000    -5.85000000    41.88000000
   C     35.22000000    -5.25000000    41.72000000
   C     36.47000000    -6.00000000    41.29000000
   O     36.96000000    -6.93000000    41.93000000
   H     33.31000000    -5.39000000    42.54000000
   H     35.61000000    -4.89000000    42.68000000
   H     35.04000000    -4.41000000    41.05000000
   N     37.10000000    -5.51000000    40.22000000
   C     38.37000000    -6.03000000    39.75000000
   C     39.16000000    -5.02000000    38.94000000
   O     38.57000000    -4.32000000    38.11000000
   C     38.10000000    -7.26000000    38.89000000
   C     39.31000000    -8.08000000    38.44000000
   O     37.38000000    -6.99000000    37.71000000
   H     36.60000000    -4.73000000    39.81000000
   H     39.05000000    -6.37000000    40.53000000
   H     37.46000000    -7.87000000    39.54000000
   H     37.18000000    -7.89000000    37.45000000
   H     39.16000000    -8.91000000    37.74000000
   H     39.96000000    -7.41000000    37.88000000
   H     39.74000000    -8.28000000    39.41000000
   N     40.48000000    -5.01000000    39.10000000
   C     41.40000000    -4.22000000    38.30000000
   C     42.61000000    -5.09000000    38.01000000
   O     43.55000000    -5.26000000    38.78000000
   C     41.66000000    -2.83000000    38.89000000
   C     42.73000000    -2.07000000    38.12000000
   C     41.98000000    -2.80000000    40.38000000
   C     42.73000000    -2.19000000    36.60000000
   H     40.90000000    -5.54000000    39.85000000
   H     40.81000000    -4.11000000    37.39000000
   H     40.78000000    -2.20000000    38.76000000
   H     43.76000000    -2.35000000    38.35000000
   H     42.58000000    -1.02000000    38.39000000
   H     42.35000000    -1.82000000    40.69000000
   H     41.18000000    -3.09000000    41.05000000
   H     42.80000000    -3.51000000    40.51000000
   H     42.80000000    -3.22000000    36.25000000
   H     41.78000000    -1.73000000    36.31000000
   H     43.53000000    -1.56000000    36.18000000
   N     42.56000000    -5.58000000    36.76000000
   C     43.44000000    -6.60000000    36.22000000
   C     43.78000000    -6.36000000    34.75000000
   O     44.51000000    -7.12000000    34.12000000
   C     42.89000000    -8.01000000    36.40000000
   C     41.75000000    -8.41000000    35.47000000
   O     42.47000000    -8.10000000    37.75000000
   H     41.78000000    -5.32000000    36.19000000
   H     44.37000000    -6.50000000    36.77000000
   H     43.70000000    -8.70000000    36.17000000
   H     43.21000000    -7.82000000    38.29000000
   H     41.09000000    -7.57000000    35.25000000
   H     42.10000000    -8.64000000    34.47000000
   H     41.17000000    -9.24000000    35.89000000
   N     43.08000000    -5.45000000    34.08000000
   C     43.10000000    -5.23000000    32.65000000
   C     42.40000000    -6.33000000    31.86000000
   O     42.22000000    -7.44000000    32.34000000
   C     44.47000000    -4.77000000    32.16000000
   C     45.16000000    -3.70000000    33.00000000
   O     44.27000000    -4.19000000    30.89000000
   H     42.34000000    -4.93000000    34.54000000
   H     42.43000000    -4.38000000    32.53000000
   H     45.06000000    -5.68000000    31.99000000
   H     45.09000000    -3.81000000    30.55000000
   H     44.46000000    -3.28000000    33.72000000
   H     45.98000000    -4.18000000    33.54000000
   H     45.63000000    -2.91000000    32.42000000
   N     42.01000000    -6.04000000    30.61000000
   C     41.58000000    -7.00000000    29.62000000
   C     40.14000000    -6.84000000    29.16000000
   O     39.63000000    -7.79000000    28.56000000
   C     42.52000000    -7.01000000    28.41000000
   C     43.95000000    -7.42000000    28.76000000
   C     44.71000000    -7.40000000    27.44000000
   C     46.16000000    -7.90000000    27.50000000
   N     46.87000000    -7.50000000    26.27000000
   H     42.21000000    -5.10000000    30.29000000
   H     41.66000000    -8.03000000    29.99000000
   H     42.53000000    -5.99000000    28.03000000
   H     42.04000000    -7.71000000    27.72000000
   H     43.87000000    -8.44000000    29.14000000
   H     44.42000000    -6.82000000    29.53000000
   H     44.69000000    -6.38000000    27.06000000
   H     44.19000000    -8.06000000    26.74000000
   H     46.14000000    -8.98000000    27.55000000
   H     46.63000000    -7.48000000    28.39000000
   H     46.72000000    -6.51000000    26.21000000
   H     47.87000000    -7.53000000    26.36000000
   H     46.60000000    -7.99000000    25.43000000
   N     39.32000000    -5.83000000    29.44000000
   C     39.42000000    -4.48000000    29.96000000
   C     40.57000000    -3.63000000    29.44000000
   O     41.44000000    -3.15000000    30.16000000
   C     39.35000000    -4.48000000    31.48000000
   C     37.98000000    -4.86000000    32.05000000
   C     37.95000000    -4.67000000    33.56000000
   O     38.16000000    -3.56000000    34.09000000
   O     37.85000000    -5.74000000    34.20000000
   H     38.36000000    -6.11000000    29.29000000
   H     38.55000000    -3.92000000    29.63000000
   H     39.53000000    -3.43000000    31.73000000
   H     40.19000000    -4.94000000    32.00000000
   H     37.75000000    -5.83000000    31.63000000
   H     37.19000000    -4.20000000    31.68000000
   N     40.45000000    -3.49000000    28.12000000
   C     41.07000000    -2.40000000    27.38000000
   H     42.06300000    -2.70400000    27.05000000
   H     40.45800000    -2.15600000    26.51200000
   H     41.15400000    -1.52500000    28.02400000
   H     39.78000000    -4.09000000    27.66000000
  Ca     36.50000000    -4.74100000    36.22000000
   O     36.30000000    -2.23100000    36.06000000
   H     35.76000000    -1.55100000    35.65000000
   H     36.75000000    -1.78100000    36.77000000
   O     34.78000000    -4.23100000    34.21000000
   H     34.70000000    -4.72100000    33.39000000
   H     34.80000000    -3.31100000    33.94000000
   O     35.71000000    -7.35100000    35.29000000
   H     36.05000000    -8.08100000    35.81000000
   H     35.94000000    -7.58100000    34.38000000

Ca 1.70



