%chk=loop1.cluster61.chk
%nprocshared=48
%mem=10GB
%nosave
#b3lyp/svp scf=(tight,noincore) Test 
#IOP(5/87=12) Density=Current Pop=(MK,readradii) iop(6/33=2) iop(6/42=6)

loop1.cluster61 

   0  1 
   C     90.33000000    69.11000000    52.82000000
   C     90.13000000    69.60000000    51.40000000
   O     89.03000000    69.94000000    50.95000000
   H     91.03900000    69.76100000    53.33200000
   H     89.37700000    69.12600000    53.34800000
   H     90.71900000    68.09200000    52.80200000
   N     91.26000000    69.80000000    50.72000000
   C     91.39000000    70.24000000    49.35000000
   C     90.64000000    71.52000000    49.01000000
   O     89.74000000    71.56000000    48.17000000
   C     91.03000000    69.08000000    48.42000000
   C     91.20000000    69.31000000    46.93000000
   O     90.51000000    68.62000000    46.16000000
   O     92.15000000    70.03000000    46.54000000
   H     92.00000000    70.05000000    51.36000000
   H     92.42000000    70.47000000    49.04000000
   H     90.03000000    68.68000000    48.58000000
   H     91.67000000    68.23000000    48.63000000
   N     90.84000000    72.53000000    49.87000000
   C     89.97000000    73.69000000    49.94000000
   C     90.37000000    74.79000000    48.96000000
   O     89.64000000    75.77000000    48.88000000
   C     89.90000000    74.28000000    51.34000000
   C     89.12000000    73.48000000    52.39000000
   C     89.37000000    73.96000000    53.81000000
   C     88.77000000    73.16000000    54.97000000
   N     87.45000000    73.62000000    55.42000000
   H     91.68000000    72.65000000    50.40000000
   H     88.95000000    73.46000000    49.64000000
   H     89.43000000    75.26000000    51.36000000
   H     90.90000000    74.45000000    51.73000000
   H     89.26000000    72.42000000    52.19000000
   H     88.06000000    73.56000000    52.15000000
   H     88.98000000    74.98000000    53.91000000
   H     90.44000000    74.05000000    53.97000000
   H     89.42000000    73.08000000    55.84000000
   H     88.61000000    72.12000000    54.69000000
   H     87.03000000    72.89000000    55.98000000
   H     87.55000000    74.46000000    55.97000000
   H     86.73000000    73.89000000    54.76000000
   N     91.31000000    74.54000000    48.04000000
   C     91.58000000    75.35000000    46.87000000
   C     91.40000000    74.66000000    45.52000000
   O     91.71000000    75.27000000    44.50000000
   C     92.88000000    76.12000000    47.05000000
   C     93.14000000    77.38000000    46.23000000
   O     94.04000000    78.14000000    46.64000000
   O     92.31000000    77.69000000    45.34000000
   H     91.95000000    73.79000000    48.25000000
   H     90.91000000    76.21000000    46.91000000
   H     93.66000000    75.42000000    46.74000000
   H     93.21000000    76.32000000    48.07000000
   N     90.82000000    73.47000000    45.47000000
   C     90.40000000    72.89000000    44.21000000
   C     91.43000000    72.39000000    43.21000000
   O     91.14000000    71.50000000    42.42000000
   H     90.41000000    73.10000000    46.32000000
   H     89.99000000    73.77000000    43.71000000
   H     89.56000000    72.20000000    44.34000000
   N     92.64000000    72.95000000    43.17000000
   C     93.82000000    72.52000000    42.44000000
   C     94.97000000    72.23000000    43.39000000
   O     95.01000000    72.52000000    44.59000000
   C     94.16000000    73.49000000    41.31000000
   C     94.42000000    74.87000000    41.91000000
   O     93.47000000    75.68000000    41.81000000
   O     95.58000000    75.21000000    42.24000000
   H     92.87000000    73.66000000    43.85000000
   H     93.54000000    71.56000000    41.99000000
   H     93.30000000    73.54000000    40.64000000
   H     95.00000000    73.18000000    40.70000000
   N     96.03000000    71.59000000    42.89000000
   C     97.17000000    71.22000000    43.70000000
   C     96.87000000    70.17000000    44.76000000
   O     96.35000000    69.09000000    44.50000000
   H     95.94000000    71.16000000    41.99000000
   H     97.69000000    72.07000000    44.17000000
   H     97.94000000    70.79000000    43.07000000
   N     97.29000000    70.48000000    45.99000000
   C     97.54000000    69.47000000    47.00000000
   C     98.91000000    68.82000000    46.88000000
   O     99.79000000    69.32000000    46.19000000
   C     97.34000000    70.06000000    48.39000000
   C     98.44000000    70.99000000    48.89000000
   O     96.19000000    70.88000000    48.44000000
   H     97.67000000    71.41000000    46.07000000
   H     96.81000000    68.66000000    46.89000000
   H     97.20000000    69.27000000    49.12000000
   H     95.87000000    71.02000000    49.33000000
   H     98.44000000    71.85000000    48.23000000
   H     98.26000000    71.34000000    49.91000000
   H     99.36000000    70.42000000    48.78000000
   N     99.17000000    67.75000000    47.64000000
   C    100.47000000    67.14000000    47.85000000
   C    100.65000000    65.65000000    47.60000000
   O    101.72000000    65.08000000    47.81000000
   C    100.93000000    67.51000000    49.26000000
   C    102.44000000    67.51000000    49.51000000
   C    100.30000000    66.61000000    50.32000000
   C    103.13000000    68.59000000    48.69000000
   H     98.40000000    67.46000000    48.22000000
   H    101.06000000    67.76000000    47.17000000
   H    100.61000000    68.51000000    49.52000000
   H    102.87000000    66.52000000    49.35000000
   H    102.67000000    67.77000000    50.54000000
   H    100.91000000    65.71000000    50.39000000
   H    100.39000000    67.11000000    51.28000000
   H     99.28000000    66.46000000    49.95000000
   H    104.03000000    68.90000000    49.23000000
   H    103.39000000    68.24000000    47.69000000
   H    102.44000000    69.41000000    48.51000000
   N     99.58000000    65.00000000    47.14000000
   C     99.67000000    63.69000000    46.55000000
   C     99.92000000    62.55000000    47.53000000
   O     99.27000000    62.25000000    48.52000000
   C     98.32000000    63.44000000    45.88000000
   C     97.93000000    64.36000000    44.73000000
   O     98.32000000    62.22000000    45.17000000
   H     98.74000000    65.56000000    47.24000000
   H    100.47000000    63.70000000    45.82000000
   H     97.55000000    63.49000000    46.65000000
   H     98.88000000    62.37000000    44.40000000
   H     98.66000000    64.49000000    43.92000000
   H     96.98000000    64.03000000    44.31000000
   H     97.72000000    65.37000000    45.09000000
   N    100.85000000    61.69000000    47.09000000
   C    101.27000000    60.51000000    47.81000000
   C    101.97000000    60.83000000    49.12000000
   O    101.83000000    60.00000000    50.01000000
   C    102.16000000    59.68000000    46.89000000
   C    103.35000000    60.47000000    46.36000000
   O    101.35000000    59.25000000    45.82000000
   H    101.10000000    61.76000000    46.12000000
   H    100.41000000    59.89000000    48.09000000
   H    102.54000000    58.76000000    47.35000000
   H    101.63000000    58.41000000    45.45000000
   H    103.64000000    60.25000000    45.34000000
   H    103.25000000    61.56000000    46.43000000
   H    104.17000000    60.23000000    47.03000000
   N    102.66000000    61.97000000    49.31000000
   C    103.17000000    62.40000000    50.59000000
   C    102.13000000    62.94000000    51.56000000
   O    100.93000000    63.06000000    51.30000000
   C    104.25000000    63.41000000    50.18000000
   C    105.34000000    62.79000000    49.32000000
   C    106.53000000    63.75000000    49.30000000
   C    107.53000000    63.42000000    48.19000000
   N    108.44000000    64.56000000    48.03000000
   H    102.62000000    62.60000000    48.52000000
   H    103.79000000    61.68000000    51.13000000
   H    104.71000000    63.85000000    51.06000000
   H    103.73000000    64.21000000    49.65000000
   H    105.02000000    62.59000000    48.29000000
   H    105.70000000    61.89000000    49.81000000
   H    107.00000000    63.81000000    50.28000000
   H    106.02000000    64.66000000    48.99000000
   H    106.95000000    63.29000000    47.28000000
   H    108.05000000    62.51000000    48.49000000
   H    108.02000000    65.47000000    47.89000000
   H    109.06000000    64.66000000    48.83000000
   H    109.03000000    64.57000000    47.21000000
   N    102.63000000    63.37000000    52.72000000
   C    101.94000000    63.87000000    53.89000000
   C    101.85000000    62.74000000    54.91000000
   O    102.72000000    61.88000000    55.03000000
   C    102.68000000    65.13000000    54.32000000
   C    102.62000000    66.21000000    53.25000000
   C    103.33000000    67.43000000    53.80000000
   O    102.80000000    68.56000000    53.75000000
   O    104.45000000    67.24000000    54.33000000
   H    103.63000000    63.31000000    52.87000000
   H    100.94000000    64.20000000    53.59000000
   H    103.71000000    64.86000000    54.56000000
   H    102.20000000    65.59000000    55.19000000
   H    101.54000000    66.36000000    53.18000000
   H    103.06000000    65.96000000    52.28000000
   N    100.83000000    62.63000000    55.76000000
   C     99.64000000    63.44000000    55.93000000
   H     98.82700000    62.81700000    56.30200000
   H     99.84200000    64.23700000    56.64500000
   H     99.35500000    63.87400000    54.97200000
   H    100.97000000    61.99000000    56.52000000
  Ca     91.58000000    77.36000000    42.90000000
   O     89.52000000    77.79000000    44.65000000
   H     89.74000000    78.37000000    45.38000000
   H     88.89000000    77.17000000    45.02000000
   O     92.06000000    79.86000000    43.35000000
   H     92.34000000    79.77000000    44.26000000
   H     91.78000000    80.78000000    43.28000000
   O     92.07000000    78.28000000    40.37000000
   H     92.83000000    78.86000000    40.29000000
   H     91.59000000    78.41000000    39.56000000
   O     90.50000000    75.31000000    41.34000000
   H     89.87000000    74.60000000    41.21000000
   H     91.26000000    75.05000000    40.83000000
   O     94.37000000    78.39000000    43.34000000
   H     94.75000000    77.55000000    43.06000000
   H     95.13000000    78.92000000    43.59000000
   O     89.58000000    78.56000000    41.65000000
   H     88.79000000    79.10000000    41.76000000
   H     89.84000000    78.71000000    40.74000000

Ca 1.70



