%chk=loop2.cluster228.chk
%nprocshared=48
%mem=10GB
%nosave
#b3lyp/svp scf=(tight,noincore) Test 
#IOP(5/87=12) Density=Current Pop=(MK,readradii) iop(6/33=2) iop(6/42=6)

loop2.cluster228 

   -2  1 
   C     47.83000000    41.32000000     7.76000000
   C     46.92000000    42.05000000     6.79000000
   O     46.96000000    43.27000000     6.66000000
   H     48.72500000    41.91700000     7.93700000
   H     47.30600000    41.16400000     8.70300000
   H     48.11400000    40.35600000     7.33700000
   N     45.98000000    41.46000000     6.04000000
   C     45.60000000    40.08000000     5.82000000
   C     45.02000000    39.45000000     7.08000000
   O     44.28000000    40.08000000     7.83000000
   C     44.59000000    40.03000000     4.68000000
   C     43.46000000    41.04000000     4.57000000
   O     42.62000000    40.91000000     3.65000000
   O     43.38000000    41.94000000     5.43000000
   H     45.35000000    42.05000000     5.52000000
   H     46.51000000    39.55000000     5.54000000
   H     44.26000000    38.99000000     4.65000000
   H     45.25000000    40.05000000     3.81000000
   N     45.29000000    38.16000000     7.30000000
   C     44.79000000    37.23000000     8.30000000
   C     43.33000000    36.89000000     8.05000000
   O     43.12000000    35.96000000     7.27000000
   C     45.17000000    37.67000000     9.71000000
   H     45.91000000    37.72000000     6.64000000
   H     45.23000000    36.26000000     8.07000000
   H     45.01000000    36.80000000    10.34000000
   H     46.23000000    37.96000000     9.72000000
   H     44.44000000    38.44000000     9.93000000
   N     42.40000000    37.77000000     8.41000000
   C     41.08000000    37.81000000     7.81000000
   C     41.09000000    38.59000000     6.51000000
   O     41.60000000    39.71000000     6.47000000
   C     39.94000000    38.45000000     8.60000000
   C     40.25000000    39.72000000     9.39000000
   O     41.33000000    40.31000000     9.22000000
   O     39.47000000    40.10000000    10.29000000
   H     42.63000000    38.64000000     8.88000000
   H     40.85000000    36.76000000     7.63000000
   H     39.64000000    37.70000000     9.33000000
   H     39.08000000    38.62000000     7.96000000
   N     40.62000000    37.96000000     5.43000000
   C     40.57000000    38.58000000     4.12000000
   C     39.67000000    39.78000000     3.84000000
   O     39.08000000    39.81000000     2.77000000
   H     40.10000000    37.11000000     5.57000000
   H     40.23000000    37.84000000     3.40000000
   H     41.60000000    38.82000000     3.84000000
   N     39.70000000    40.79000000     4.72000000
   C     38.87000000    41.97000000     4.63000000
   C     39.59000000    43.30000000     4.46000000
   O     38.95000000    44.33000000     4.65000000
   C     38.02000000    41.92000000     5.89000000
   C     38.80000000    41.94000000     7.19000000
   N     38.16000000    41.58000000     8.31000000
   O     39.99000000    42.24000000     7.29000000
   H     40.29000000    40.65000000     5.53000000
   H     38.21000000    41.95000000     3.76000000
   H     37.36000000    41.05000000     5.98000000
   H     37.31000000    42.76000000     5.90000000
   H     37.17000000    41.44000000     8.42000000
   H     38.78000000    41.58000000     9.10000000
   N     40.88000000    43.32000000     4.12000000
   C     41.77000000    44.46000000     4.04000000
   C     42.12000000    44.93000000     5.44000000
   O     41.91000000    44.17000000     6.38000000
   H     41.32000000    42.41000000     4.19000000
   H     41.32000000    45.28000000     3.48000000
   H     42.67000000    44.22000000     3.47000000
   N     42.45000000    46.19000000     5.76000000
   C     42.35000000    47.34000000     4.89000000
   C     43.26000000    48.49000000     5.30000000
   O     43.38000000    49.40000000     4.48000000
   C     40.90000000    47.80000000     4.72000000
   C     40.25000000    48.34000000     5.99000000
   O     40.67000000    48.88000000     3.85000000
   H     42.58000000    46.46000000     6.72000000
   H     42.80000000    47.10000000     3.93000000
   H     40.27000000    46.98000000     4.39000000
   H     41.43000000    49.43000000     4.05000000
   H     40.84000000    49.14000000     6.45000000
   H     39.26000000    48.67000000     5.69000000
   H     40.19000000    47.51000000     6.69000000
   N     44.06000000    48.47000000     6.37000000
   C     45.04000000    49.46000000     6.74000000
   C     44.46000000    50.87000000     6.78000000
   O     44.63000000    51.75000000     5.94000000
   C     46.34000000    49.34000000     5.94000000
   C     46.67000000    47.86000000     5.75000000
   C     47.43000000    50.24000000     6.52000000
   C     48.08000000    47.52000000     5.26000000
   H     44.19000000    47.58000000     6.84000000
   H     45.41000000    49.22000000     7.74000000
   H     46.22000000    49.74000000     4.93000000
   H     45.99000000    47.43000000     5.02000000
   H     46.55000000    47.36000000     6.71000000
   H     46.96000000    51.21000000     6.68000000
   H     47.85000000    49.85000000     7.45000000
   H     48.30000000    50.25000000     5.87000000
   H     48.30000000    48.09000000     4.36000000
   H     48.84000000    47.79000000     6.00000000
   H     48.20000000    46.45000000     5.08000000
   N     43.60000000    51.20000000     7.75000000
   C     43.09000000    50.27000000     8.74000000
   C     44.06000000    50.06000000     9.90000000
   O     44.58000000    48.94000000     9.95000000
   C     41.73000000    50.73000000     9.24000000
   C     41.46000000    52.19000000     9.57000000
   O     40.28000000    52.56000000     9.79000000
   O     42.43000000    52.98000000     9.64000000
   H     43.41000000    52.19000000     7.84000000
   H     42.88000000    49.30000000     8.31000000
   H     41.47000000    50.11000000    10.10000000
   H     40.99000000    50.44000000     8.49000000
   N     44.23000000    50.99000000    10.84000000
   C     44.59000000    50.73000000    12.22000000
   C     43.30000000    50.47000000    12.97000000
   O     42.31000000    51.13000000    12.65000000
   C     45.49000000    51.84000000    12.76000000
   C     44.82000000    53.16000000    13.05000000
   C     44.70000000    54.11000000    12.03000000
   C     44.25000000    53.48000000    14.29000000
   C     44.07000000    55.33000000    12.29000000
   C     43.50000000    54.64000000    14.54000000
   C     43.49000000    55.61000000    13.53000000
   H     44.08000000    51.96000000    10.62000000
   H     45.24000000    49.86000000    12.13000000
   H     46.31000000    52.05000000    12.07000000
   H     46.05000000    51.53000000    13.65000000
   H     45.09000000    53.89000000    11.04000000
   H     44.46000000    52.76000000    15.06000000
   H     44.07000000    55.97000000    11.42000000
   H     42.92000000    54.77000000    15.44000000
   H     42.97000000    56.53000000    13.78000000
   N     43.35000000    49.65000000    14.02000000
   C     44.27000000    48.54000000    14.19000000
   C     44.35000000    47.55000000    13.03000000
   O     43.47000000    47.60000000    12.18000000
   C     43.84000000    47.77000000    15.44000000
   C     42.90000000    48.76000000    16.13000000
   C     42.31000000    49.65000000    15.03000000
   H     45.21000000    49.06000000    14.35000000
   H     43.22000000    46.92000000    15.18000000
   H     44.60000000    47.50000000    16.18000000
   H     42.11000000    48.26000000    16.68000000
   H     43.51000000    49.46000000    16.70000000
   H     41.39000000    49.27000000    14.58000000
   H     42.15000000    50.61000000    15.51000000
   N     45.44000000    46.78000000    13.07000000
   C     45.95000000    45.93000000    12.02000000
   C     47.28000000    45.26000000    12.35000000
   O     47.36000000    44.09000000    12.73000000
   C     44.88000000    44.89000000    11.67000000
   C     44.26000000    44.15000000    12.85000000
   C     43.27000000    43.06000000    12.45000000
   O     42.11000000    43.47000000    12.22000000
   O     43.59000000    41.85000000    12.37000000
   H     46.02000000    46.83000000    13.90000000
   H     46.03000000    46.49000000    11.09000000
   H     45.20000000    44.20000000    10.90000000
   H     44.15000000    45.43000000    11.07000000
   H     43.78000000    44.76000000    13.62000000
   H     45.07000000    43.71000000    13.42000000
   N     48.46000000    45.86000000    12.24000000
   C     48.79000000    47.26000000    12.04000000
   H     49.75600000    47.33700000    11.54100000
   H     48.02400000    47.73000000    11.42300000
   H     48.83900000    47.76400000    13.00500000
   H     49.26000000    45.26000000    12.35000000
  Ca     42.48000000    42.00000000     7.83000000
   O     44.46000000    44.15000000     7.70000000
   H     45.24000000    44.05000000     7.15000000
   H     44.58000000    44.98000000     8.15000000
   O     44.27000000    42.04000000     9.77000000
   H     44.21000000    41.75000000    10.68000000
   H     45.13000000    42.46000000     9.71000000
   O     41.80000000    43.90000000     9.71000000
   H     41.87000000    43.84000000    10.66000000
   H     41.48000000    44.79000000     9.55000000

Ca 1.70



