%chk=loop4.cluster33.chk
%nprocshared=48
%mem=10GB
%nosave
#b3lyp/svp scf=(tight,noincore) Test 
#IOP(5/87=12) Density=Current Pop=(MK,readradii) iop(6/33=2) iop(6/42=6)

loop4.cluster33 

   -3  1 
   C     45.38000000    40.29000000    42.06000000
   C     45.08000000    39.61000000    43.39000000
   O     45.92000000    39.65000000    44.29000000
   H     46.41700000    40.10100000    41.78200000
   H     44.71900000    39.89100000    41.29000000
   H     45.22000000    41.36400000    42.15600000
   N     43.89000000    39.02000000    43.50000000
   C     43.34000000    38.53000000    44.75000000
   C     43.15000000    39.63000000    45.78000000
   O     43.19000000    39.45000000    47.00000000
   C     43.98000000    37.24000000    45.23000000
   C     44.22000000    36.20000000    44.15000000
   O     45.40000000    35.98000000    43.77000000
   O     43.24000000    35.69000000    43.56000000
   H     43.26000000    38.97000000    42.72000000
   H     42.30000000    38.29000000    44.53000000
   H     43.50000000    36.81000000    46.12000000
   H     44.96000000    37.50000000    45.61000000
   N     43.07000000    40.89000000    45.32000000
   C     42.77000000    42.13000000    46.00000000
   C     41.52000000    41.95000000    46.84000000
   O     40.59000000    41.29000000    46.37000000
   C     42.72000000    43.21000000    44.91000000
   C     42.55000000    44.64000000    45.41000000
   C     41.89000000    42.84000000    43.69000000
   C     42.75000000    45.77000000    44.40000000
   H     42.82000000    40.85000000    44.34000000
   H     43.57000000    42.34000000    46.71000000
   H     43.78000000    43.23000000    44.65000000
   H     43.22000000    44.92000000    46.22000000
   H     41.49000000    44.74000000    45.64000000
   H     42.36000000    42.02000000    43.15000000
   H     40.82000000    42.72000000    43.87000000
   H     42.02000000    43.63000000    42.95000000
   H     41.92000000    45.77000000    43.70000000
   H     42.75000000    46.72000000    44.94000000
   H     43.70000000    45.73000000    43.87000000
   N     41.33000000    42.39000000    48.09000000
   C     42.24000000    43.03000000    49.01000000
   C     43.25000000    42.11000000    49.68000000
   O     44.41000000    42.48000000    49.86000000
   C     41.43000000    43.87000000    50.00000000
   C     40.21000000    44.67000000    49.57000000
   O     40.30000000    45.19000000    48.44000000
   O     39.21000000    44.73000000    50.32000000
   H     40.44000000    42.14000000    48.48000000
   H     42.89000000    43.66000000    48.40000000
   H     42.18000000    44.54000000    50.43000000
   H     41.12000000    43.31000000    50.87000000
   N     42.87000000    40.88000000    50.03000000
   C     43.80000000    40.03000000    50.73000000
   C     44.11000000    40.44000000    52.16000000
   O     43.23000000    40.84000000    52.92000000
   H     41.89000000    40.63000000    49.96000000
   H     44.71000000    39.94000000    50.13000000
   H     43.40000000    39.02000000    50.74000000
   N     45.40000000    40.40000000    52.51000000
   C     45.86000000    41.06000000    53.72000000
   C     46.49000000    42.36000000    53.25000000
   O     47.42000000    42.90000000    53.86000000
   C     46.84000000    40.15000000    54.46000000
   C     47.10000000    40.62000000    55.88000000
   O     48.23000000    40.44000000    56.39000000
   O     46.18000000    41.19000000    56.50000000
   H     46.01000000    40.24000000    51.72000000
   H     44.98000000    41.37000000    54.28000000
   H     47.81000000    40.22000000    53.95000000
   H     46.48000000    39.12000000    54.55000000
   N     46.13000000    42.86000000    52.06000000
   C     46.69000000    43.97000000    51.32000000
   C     48.12000000    43.88000000    50.81000000
   O     48.50000000    44.78000000    50.06000000
   H     45.41000000    42.33000000    51.60000000
   H     46.60000000    44.83000000    51.98000000
   H     46.03000000    44.07000000    50.46000000
   N     48.93000000    42.94000000    51.30000000
   C     50.37000000    42.90000000    51.19000000
   C     50.83000000    43.09000000    49.76000000
   O     51.82000000    43.75000000    49.44000000
   C     50.94000000    43.95000000    52.15000000
   C     50.91000000    43.56000000    53.62000000
   C     50.54000000    44.71000000    54.55000000
   N     49.27000000    44.98000000    54.86000000
   O     51.44000000    45.45000000    54.96000000
   H     48.56000000    42.30000000    51.99000000
   H     50.61000000    41.89000000    51.53000000
   H     50.42000000    44.91000000    52.15000000
   H     51.95000000    44.11000000    51.78000000
   H     51.89000000    43.19000000    53.90000000
   H     50.25000000    42.70000000    53.79000000
   H     48.63000000    44.32000000    54.46000000
   H     49.03000000    45.64000000    55.59000000
   N     50.19000000    42.43000000    48.79000000
   C     50.38000000    42.56000000    47.37000000
   C     51.77000000    42.11000000    46.95000000
   O     52.28000000    41.02000000    47.24000000
   C     49.15000000    42.14000000    46.57000000
   C     48.92000000    40.63000000    46.57000000
   C     47.95000000    42.99000000    46.96000000
   H     49.40000000    41.85000000    49.07000000
   H     50.41000000    43.65000000    47.28000000
   H     49.46000000    42.43000000    45.56000000
   H     49.06000000    40.27000000    47.59000000
   H     47.94000000    40.36000000    46.16000000
   H     49.67000000    40.19000000    45.91000000
   H     47.95000000    43.25000000    48.01000000
   H     47.94000000    43.94000000    46.42000000
   H     46.98000000    42.56000000    46.70000000
   N     52.45000000    42.99000000    46.21000000
   C     53.79000000    42.91000000    45.66000000
   C     53.93000000    43.41000000    44.23000000
   O     53.42000000    44.48000000    43.91000000
   C     54.63000000    43.71000000    46.65000000
   C     56.13000000    43.70000000    46.38000000
   N     56.64000000    44.85000000    45.93000000
   O     56.89000000    42.74000000    46.50000000
   H     52.03000000    43.87000000    45.94000000
   H     54.10000000    41.87000000    45.61000000
   H     54.42000000    43.37000000    47.67000000
   H     54.25000000    44.73000000    46.61000000
   H     56.09000000    45.70000000    45.89000000
   H     57.64000000    44.99000000    45.89000000
   N     54.53000000    42.65000000    43.31000000
   C     54.72000000    43.00000000    41.92000000
   C     54.89000000    41.75000000    41.07000000
   O     55.66000000    41.71000000    40.11000000
   C     55.78000000    44.09000000    41.81000000
   C     57.24000000    43.72000000    41.93000000
   C     58.05000000    43.61000000    40.79000000
   C     57.81000000    43.46000000    43.18000000
   C     59.42000000    43.44000000    41.01000000
   C     59.17000000    43.20000000    43.39000000
   C     60.03000000    43.23000000    42.27000000
   O     61.32000000    42.80000000    42.37000000
   H     54.81000000    41.71000000    43.56000000
   H     53.80000000    43.47000000    41.58000000
   H     55.53000000    44.93000000    42.46000000
   H     55.56000000    44.55000000    40.84000000
   H     57.62000000    43.73000000    39.81000000
   H     57.26000000    43.49000000    44.11000000
   H     60.13000000    43.37000000    40.20000000
   H     59.54000000    42.95000000    44.37000000
   H     61.76000000    42.67000000    43.21000000
   N     54.14000000    40.70000000    41.42000000
   C     54.15000000    39.50000000    40.60000000
   C     53.39000000    39.51000000    39.28000000
   O     53.89000000    38.86000000    38.36000000
   C     53.90000000    38.32000000    41.52000000
   C     54.07000000    36.91000000    40.96000000
   C     55.52000000    36.52000000    40.71000000
   O     56.32000000    36.93000000    41.58000000
   O     55.85000000    35.85000000    39.71000000
   H     53.54000000    40.76000000    42.23000000
   H     55.20000000    39.38000000    40.31000000
   H     52.90000000    38.45000000    41.94000000
   H     54.49000000    38.37000000    42.44000000
   H     53.48000000    36.93000000    40.04000000
   H     53.50000000    36.17000000    41.52000000
   N     52.24000000    40.15000000    39.07000000
   C     51.30000000    40.67000000    40.05000000
   C     51.06000000    42.16000000    39.85000000
   O     52.01000000    42.91000000    40.06000000
   C     50.04000000    39.82000000    40.19000000
   C     50.31000000    38.49000000    40.90000000
   C     49.05000000    37.67000000    41.12000000
   O     48.08000000    38.05000000    41.81000000
   O     49.10000000    36.49000000    40.69000000
   H     51.94000000    40.10000000    38.11000000
   H     51.82000000    40.60000000    41.00000000
   H     49.69000000    39.58000000    39.19000000
   H     49.20000000    40.43000000    40.52000000
   H     50.71000000    38.74000000    41.88000000
   H     51.00000000    37.89000000    40.30000000
   N     49.91000000    42.61000000    39.34000000
   C     49.65000000    43.91000000    38.75000000
   H     48.77700000    44.35600000    39.22600000
   H     50.51500000    44.55700000    38.89900000
   H     49.46100000    43.79400000    37.68300000
   H     49.15000000    41.95000000    39.36000000
  Ca     46.73000000    35.83000000    41.44000000
   O     46.58000000    35.86000000    38.75000000
   H     46.98000000    36.51000000    38.18000000
   H     45.91000000    35.44000000    38.21000000
   O     48.13000000    34.66000000    43.28000000
   H     48.34000000    33.73000000    43.37000000
   H     48.72000000    35.10000000    43.90000000
   O     44.30000000    34.98000000    41.15000000
   H     43.75000000    35.01000000    41.93000000
   H     43.71000000    34.76000000    40.43000000
   O     46.97000000    33.26000000    40.77000000
   H     47.14000000    32.50000000    41.33000000
   H     46.61000000    32.88000000    39.97000000

Ca 1.70



