%chk=loop4.cluster44.chk
%nprocshared=48
%mem=10GB
%nosave
#b3lyp/svp scf=(tight,noincore) Test 
#IOP(5/87=12) Density=Current Pop=(MK,readradii) iop(6/33=2) iop(6/42=6)

loop4.cluster44 

   -3  1 
   C     66.96000000    29.58000000    48.97000000
   C     67.44000000    29.49000000    50.41000000
   O     68.27000000    30.30000000    50.81000000
   H     66.09200000    30.23800000    48.91700000
   H     67.75800000    29.98100000    48.34500000
   H     66.68400000    28.58700000    48.61600000
   N     67.07000000    28.51000000    51.24000000
   C     67.46000000    28.08000000    52.56000000
   C     67.37000000    29.09000000    53.70000000
   O     68.34000000    29.23000000    54.44000000
   C     68.75000000    27.26000000    52.51000000
   C     68.92000000    26.37000000    51.29000000
   O     70.01000000    26.30000000    50.69000000
   O     67.96000000    25.68000000    50.88000000
   H     66.39000000    27.91000000    50.78000000
   H     66.72000000    27.34000000    52.88000000
   H     68.80000000    26.77000000    53.48000000
   H     69.59000000    27.95000000    52.40000000
   N     66.25000000    29.83000000    53.71000000
   C     65.87000000    30.79000000    54.73000000
   C     64.78000000    30.23000000    55.62000000
   O     63.77000000    29.78000000    55.08000000
   C     65.42000000    32.11000000    54.11000000
   C     66.18000000    32.49000000    52.84000000
   C     65.60000000    33.28000000    55.08000000
   C     65.71000000    33.74000000    52.10000000
   H     65.58000000    29.63000000    52.99000000
   H     66.75000000    30.98000000    55.35000000
   H     64.38000000    32.04000000    53.78000000
   H     66.15000000    31.65000000    52.15000000
   H     67.21000000    32.62000000    53.16000000
   H     66.55000000    33.83000000    55.02000000
   H     64.90000000    34.03000000    54.73000000
   H     65.31000000    32.98000000    56.08000000
   H     66.58000000    34.14000000    51.59000000
   H     65.02000000    33.36000000    51.34000000
   H     65.24000000    34.45000000    52.78000000
   N     64.87000000    30.30000000    56.95000000
   C     65.97000000    30.79000000    57.77000000
   C     67.25000000    29.97000000    57.83000000
   O     68.30000000    30.54000000    58.11000000
   C     65.47000000    30.97000000    59.20000000
   C     64.17000000    31.76000000    59.27000000
   O     63.06000000    31.25000000    59.53000000
   O     64.25000000    32.94000000    58.86000000
   H     64.15000000    29.78000000    57.43000000
   H     66.17000000    31.79000000    57.40000000
   H     66.24000000    31.53000000    59.72000000
   H     65.22000000    30.03000000    59.69000000
   N     67.13000000    28.69000000    57.47000000
   C     68.12000000    27.72000000    57.06000000
   C     68.70000000    26.91000000    58.22000000
   O     67.91000000    26.53000000    59.08000000
   H     66.20000000    28.30000000    57.55000000
   H     68.98000000    28.25000000    56.64000000
   H     67.76000000    27.14000000    56.21000000
   N     70.03000000    26.82000000    58.30000000
   C     70.73000000    26.16000000    59.38000000
   C     71.93000000    26.89000000    59.95000000
   O     72.51000000    26.41000000    60.92000000
   C     71.12000000    24.72000000    59.04000000
   C     72.11000000    24.60000000    57.89000000
   O     72.42000000    25.64000000    57.27000000
   O     72.55000000    23.48000000    57.56000000
   H     70.49000000    26.99000000    57.42000000
   H     69.97000000    26.06000000    60.16000000
   H     70.19000000    24.26000000    58.72000000
   H     71.46000000    24.14000000    59.89000000
   N     72.33000000    27.98000000    59.29000000
   C     73.64000000    28.59000000    59.45000000
   C     74.86000000    27.73000000    59.16000000
   O     75.90000000    27.98000000    59.75000000
   H     71.74000000    28.24000000    58.51000000
   H     73.67000000    28.88000000    60.51000000
   H     73.72000000    29.48000000    58.83000000
   N     74.78000000    26.68000000    58.34000000
   C     75.87000000    25.97000000    57.70000000
   C     76.74000000    26.86000000    56.82000000
   O     77.96000000    26.94000000    56.97000000
   C     76.60000000    25.04000000    58.67000000
   C     75.63000000    24.10000000    59.37000000
   C     76.26000000    23.30000000    60.51000000
   N     75.63000000    22.17000000    60.85000000
   O     77.30000000    23.71000000    61.01000000
   H     73.83000000    26.42000000    58.08000000
   H     75.33000000    25.33000000    57.01000000
   H     77.22000000    25.62000000    59.36000000
   H     77.29000000    24.38000000    58.15000000
   H     75.14000000    23.40000000    58.70000000
   H     74.72000000    24.60000000    59.71000000
   H     74.81000000    21.87000000    60.35000000
   H     76.08000000    21.55000000    61.50000000
   N     76.05000000    27.52000000    55.90000000
   C     76.63000000    28.44000000    54.93000000
   C     77.36000000    27.78000000    53.77000000
   O     76.96000000    26.72000000    53.30000000
   C     75.54000000    29.37000000    54.42000000
   C     74.48000000    28.69000000    53.55000000
   C     74.91000000    30.29000000    55.47000000
   H     75.11000000    27.20000000    55.73000000
   H     77.30000000    29.04000000    55.54000000
   H     76.10000000    30.08000000    53.81000000
   H     74.90000000    28.37000000    52.60000000
   H     73.93000000    27.88000000    54.02000000
   H     73.75000000    29.42000000    53.19000000
   H     74.40000000    29.64000000    56.17000000
   H     75.71000000    30.89000000    55.90000000
   H     74.10000000    30.82000000    54.97000000
   N     78.45000000    28.41000000    53.34000000
   C     79.05000000    28.01000000    52.08000000
   C     78.32000000    28.59000000    50.88000000
   O     77.82000000    29.71000000    51.00000000
   C     80.51000000    28.45000000    52.10000000
   C     81.37000000    27.70000000    51.10000000
   N     80.99000000    26.52000000    50.60000000
   O     82.47000000    28.15000000    50.79000000
   H     78.72000000    29.26000000    53.82000000
   H     78.98000000    26.93000000    52.09000000
   H     80.91000000    28.22000000    53.09000000
   H     80.75000000    29.52000000    52.10000000
   H     80.22000000    25.97000000    50.97000000
   H     81.52000000    26.18000000    49.82000000
   N     78.24000000    27.87000000    49.76000000
   C     77.60000000    28.27000000    48.52000000
   C     76.97000000    27.06000000    47.87000000
   O     77.61000000    26.27000000    47.17000000
   C     78.61000000    29.04000000    47.66000000
   C     79.22000000    30.36000000    48.07000000
   C     80.37000000    30.39000000    48.87000000
   C     78.70000000    31.56000000    47.58000000
   C     80.90000000    31.60000000    49.35000000
   C     79.36000000    32.77000000    47.83000000
   C     80.43000000    32.78000000    48.74000000
   O     81.03000000    33.96000000    49.08000000
   H     78.68000000    26.96000000    49.73000000
   H     76.82000000    28.99000000    48.76000000
   H     77.97000000    29.24000000    46.80000000
   H     79.35000000    28.32000000    47.32000000
   H     80.72000000    29.42000000    49.18000000
   H     77.93000000    31.61000000    46.82000000
   H     81.77000000    31.56000000    49.99000000
   H     78.93000000    33.71000000    47.50000000
   H     80.80000000    34.64000000    48.44000000
   N     75.64000000    26.98000000    47.94000000
   C     74.88000000    25.91000000    47.33000000
   C     74.44000000    26.19000000    45.91000000
   O     74.86000000    25.51000000    44.98000000
   C     73.82000000    25.38000000    48.29000000
   C     73.02000000    24.25000000    47.64000000
   C     72.37000000    23.48000000    48.78000000
   O     71.20000000    23.86000000    48.98000000
   O     73.00000000    22.63000000    49.45000000
   H     75.15000000    27.66000000    48.50000000
   H     75.59000000    25.08000000    47.35000000
   H     73.11000000    26.13000000    48.64000000
   H     74.38000000    25.03000000    49.16000000
   H     73.73000000    23.62000000    47.10000000
   H     72.25000000    24.66000000    46.99000000
   N     73.68000000    27.22000000    45.50000000
   C     72.93000000    28.15000000    46.31000000
   C     73.68000000    29.42000000    46.69000000
   O     74.62000000    29.92000000    46.06000000
   C     71.61000000    28.58000000    45.67000000
   C     70.66000000    27.48000000    45.21000000
   C     70.21000000    26.58000000    46.35000000
   O     69.99000000    25.36000000    46.16000000
   O     70.02000000    27.04000000    47.49000000
   H     73.47000000    27.26000000    44.52000000
   H     72.73000000    27.65000000    47.26000000
   H     71.87000000    29.25000000    44.85000000
   H     71.03000000    29.16000000    46.38000000
   H     71.00000000    26.86000000    44.38000000
   H     69.79000000    28.01000000    44.80000000
   N     73.18000000    30.17000000    47.67000000
   C     73.71000000    31.39000000    48.24000000
   H     74.63900000    31.65300000    47.73400000
   H     72.98600000    32.19500000    48.11300000
   H     73.90600000    31.24100000    49.30200000
   H     72.44000000    29.73000000    48.19000000
  Ca     68.97000000    24.84000000    48.57000000
   O     68.19000000    22.68000000    49.84000000
   H     67.62000000    22.27000000    50.49000000
   H     68.59000000    21.94000000    49.37000000

Ca 1.70



