%chk=loop2.cluster153.chk
%nprocshared=48
%mem=10GB
%nosave
#b3lyp/svp scf=(tight,noincore) Test 
#IOP(5/87=12) Density=Current Pop=(MK,readradii) iop(6/33=2) iop(6/42=6)

loop2.cluster153 

   -2  1 
   C     87.52000000   102.12000000    45.15000000
   C     87.37000000   102.62000000    46.58000000
   O     86.25000000   102.98000000    46.95000000
   H     88.57500000   101.95600000    44.93200000
   H     86.97600000   101.18300000    45.03300000
   H     87.11800000   102.86300000    44.46100000
   N     88.47000000   102.63000000    47.34000000
   C     88.53000000   103.26000000    48.65000000
   C     87.92000000   102.46000000    49.79000000
   O     88.41000000   102.45000000    50.91000000
   C     89.98000000   103.61000000    48.98000000
   C     90.20000000   104.56000000    50.15000000
   O     91.18000000   104.43000000    50.92000000
   O     89.44000000   105.54000000    50.26000000
   H     89.31000000   102.28000000    46.91000000
   H     87.92000000   104.16000000    48.65000000
   H     90.56000000   104.10000000    48.20000000
   H     90.52000000   102.69000000    49.17000000
   N     86.78000000   101.79000000    49.57000000
   C     86.15000000   100.95000000    50.57000000
   C     85.56000000    99.72000000    49.92000000
   O     85.49000000    99.66000000    48.70000000
   C     85.10000000   101.89000000    51.16000000
   H     86.40000000   101.75000000    48.64000000
   H     86.78000000   100.63000000    51.40000000
   H     84.39000000   101.50000000    51.88000000
   H     85.57000000   102.70000000    51.73000000
   H     84.50000000   102.30000000    50.35000000
   N     85.06000000    98.69000000    50.62000000
   C     85.08000000    98.44000000    52.05000000
   C     86.17000000    97.48000000    52.50000000
   O     86.60000000    96.62000000    51.73000000
   C     83.67000000    98.04000000    52.47000000
   C     82.55000000    99.07000000    52.32000000
   O     82.49000000   100.07000000    53.06000000
   O     81.74000000    99.01000000    51.37000000
   H     84.65000000    97.91000000    50.11000000
   H     85.20000000    99.33000000    52.66000000
   H     83.68000000    97.83000000    53.54000000
   H     83.41000000    97.17000000    51.87000000
   N     86.61000000    97.51000000    53.75000000
   C     87.61000000    96.55000000    54.18000000
   C     88.95000000    96.79000000    53.52000000
   O     89.30000000    97.90000000    53.12000000
   H     86.10000000    98.01000000    54.47000000
   H     87.26000000    95.58000000    53.81000000
   H     87.65000000    96.52000000    55.27000000
   N     89.83000000    95.79000000    53.39000000
   C     89.69000000    94.41000000    53.81000000
   C     88.95000000    93.49000000    52.85000000
   O     88.94000000    92.28000000    53.07000000
   C     91.00000000    93.81000000    54.29000000
   C     91.07000000    92.84000000    55.46000000
   N     91.04000000    93.43000000    56.66000000
   O     90.93000000    91.62000000    55.33000000
   H     90.67000000    96.02000000    52.86000000
   H     89.01000000    94.41000000    54.66000000
   H     91.61000000    94.67000000    54.59000000
   H     91.48000000    93.33000000    53.44000000
   H     90.96000000    94.43000000    56.76000000
   H     91.11000000    92.87000000    57.50000000
   N     88.38000000    94.08000000    51.79000000
   C     87.60000000    93.38000000    50.79000000
   C     86.28000000    92.88000000    51.36000000
   O     85.80000000    91.76000000    51.17000000
   H     88.38000000    95.09000000    51.75000000
   H     88.25000000    92.59000000    50.41000000
   H     87.27000000    94.15000000    50.10000000
   N     85.67000000    93.76000000    52.16000000
   C     84.40000000    93.50000000    52.81000000
   C     83.17000000    93.93000000    52.04000000
   O     82.25000000    94.60000000    52.51000000
   C     84.40000000    93.95000000    54.27000000
   C     83.48000000    93.19000000    55.23000000
   O     85.63000000    93.78000000    54.95000000
   H     86.04000000    94.68000000    52.33000000
   H     84.25000000    92.42000000    52.88000000
   H     84.12000000    95.00000000    54.23000000
   H     85.57000000    94.53000000    55.54000000
   H     83.63000000    93.63000000    56.22000000
   H     82.43000000    93.34000000    54.96000000
   H     83.88000000    92.18000000    55.31000000
   N     83.21000000    93.68000000    50.73000000
   C     82.29000000    94.16000000    49.72000000
   C     81.03000000    93.31000000    49.62000000
   O     80.98000000    92.24000000    50.21000000
   C     82.95000000    94.58000000    48.41000000
   C     83.80000000    95.81000000    48.73000000
   C     83.80000000    93.54000000    47.70000000
   C     84.39000000    96.43000000    47.47000000
   H     84.02000000    93.09000000    50.55000000
   H     81.95000000    95.11000000    50.14000000
   H     82.25000000    94.94000000    47.65000000
   H     84.58000000    95.53000000    49.45000000
   H     83.16000000    96.61000000    49.10000000
   H     84.80000000    93.57000000    48.13000000
   H     83.44000000    92.54000000    47.94000000
   H     83.87000000    93.66000000    46.61000000
   H     84.44000000    97.51000000    47.56000000
   H     85.42000000    96.09000000    47.49000000
   H     83.99000000    96.10000000    46.51000000
   N     80.02000000    93.84000000    48.92000000
   C     78.71000000    93.23000000    48.90000000
   C     78.16000000    93.11000000    47.48000000
   O     78.07000000    94.12000000    46.78000000
   C     77.72000000    93.99000000    49.78000000
   C     78.17000000    94.35000000    51.19000000
   O     77.89000000    93.59000000    52.14000000
   O     78.75000000    95.45000000    51.35000000
   H     79.97000000    94.85000000    48.95000000
   H     78.73000000    92.23000000    49.33000000
   H     76.83000000    93.39000000    49.92000000
   H     77.47000000    94.88000000    49.19000000
   N     77.84000000    91.88000000    47.07000000
   C     77.19000000    91.62000000    45.80000000
   C     77.88000000    92.22000000    44.58000000
   O     79.09000000    92.11000000    44.44000000
   C     76.92000000    90.12000000    45.75000000
   C     76.07000000    89.70000000    44.57000000
   C     76.67000000    89.58000000    43.31000000
   C     74.69000000    89.47000000    44.68000000
   C     75.97000000    89.00000000    42.24000000
   C     73.97000000    89.00000000    43.58000000
   C     74.61000000    88.69000000    42.37000000
   H     77.74000000    91.19000000    47.80000000
   H     76.30000000    92.21000000    46.02000000
   H     76.55000000    89.82000000    46.73000000
   H     77.91000000    89.67000000    45.74000000
   H     77.70000000    89.88000000    43.16000000
   H     74.21000000    89.51000000    45.64000000
   H     76.46000000    88.84000000    41.29000000
   H     72.93000000    88.72000000    43.66000000
   H     74.02000000    88.45000000    41.50000000
   N     77.14000000    92.87000000    43.68000000
   C     77.69000000    93.63000000    42.57000000
   C     78.71000000    94.72000000    42.84000000
   O     79.24000000    95.31000000    41.90000000
   C     76.48000000    94.16000000    41.81000000
   C     75.31000000    93.34000000    42.34000000
   C     75.71000000    93.04000000    43.79000000
   H     78.20000000    92.89000000    41.96000000
   H     76.31000000    95.20000000    42.08000000
   H     76.61000000    94.10000000    40.73000000
   H     74.41000000    93.94000000    42.19000000
   H     75.27000000    92.37000000    41.86000000
   H     75.48000000    93.83000000    44.50000000
   H     75.07000000    92.18000000    44.01000000
   N     79.08000000    94.99000000    44.10000000
   C     80.20000000    95.78000000    44.56000000
   C     81.53000000    95.10000000    44.25000000
   O     82.44000000    95.78000000    43.80000000
   C     80.09000000    96.31000000    45.99000000
   C     80.98000000    97.45000000    46.45000000
   C     80.61000000    97.70000000    47.90000000
   O     80.49000000    96.75000000    48.71000000
   O     80.23000000    98.85000000    48.23000000
   H     78.60000000    94.45000000    44.81000000
   H     80.23000000    96.66000000    43.93000000
   H     80.29000000    95.47000000    46.66000000
   H     79.06000000    96.66000000    46.02000000
   H     80.72000000    98.31000000    45.82000000
   H     82.05000000    97.26000000    46.34000000
   N     81.57000000    93.77000000    44.31000000
   C     82.61000000    92.98000000    43.67000000
   H     83.51200000    93.00500000    44.28100000
   H     82.27100000    91.94900000    43.56500000
   H     82.82700000    93.39400000    42.68500000
   H     80.69000000    93.31000000    44.51000000
  Ca     79.56000000    97.87000000    50.82000000
   O     79.54000000    99.67000000    53.31000000
   H     79.59000000    99.72000000    54.26000000
   H     80.41000000    99.94000000    53.01000000
   O     77.71000000    97.73000000    48.92000000
   H     76.76000000    97.57000000    48.92000000
   H     78.00000000    97.42000000    48.06000000
   O     80.89000000    96.86000000    52.81000000
   H     80.94000000    96.85000000    53.76000000
   H     80.98000000    95.95000000    52.54000000
   O     78.65000000   100.43800000    50.78000000
   H     77.75000000   100.59800000    50.49000000
   H     78.92000000   101.25800000    51.19000000

Ca 1.70



