%chk=loop2.cluster78.chk
%nprocshared=48
%mem=10GB
%nosave
#b3lyp/svp scf=(tight,noincore) Test 
#IOP(5/87=12) Density=Current Pop=(MK,readradii) iop(6/33=2) iop(6/42=6)

loop2.cluster78 

   -2  1 
   C    105.23000000    69.09000000    -1.72000000
   C    103.71000000    69.07000000    -1.78000000
   O    103.17000000    67.97000000    -1.68000000
   H    105.59100000    70.07800000    -2.00600000
   H    105.55700000    68.86300000    -0.70500000
   H    105.63100000    68.34500000    -2.40700000
   N    102.88000000    70.08000000    -2.01000000
   C    103.08000000    71.52000000    -1.98000000
   C    102.37000000    72.25000000    -3.11000000
   O    101.26000000    71.84000000    -3.44000000
   C    102.60000000    72.08000000    -0.65000000
   C    101.26000000    71.58000000    -0.13000000
   O    100.51000000    70.95000000    -0.90000000
   O    101.03000000    71.70000000     1.10000000
   H    101.93000000    69.76000000    -2.09000000
   H    104.16000000    71.64000000    -2.05000000
   H    102.41000000    73.15000000    -0.78000000
   H    103.36000000    72.13000000     0.14000000
   N    102.95000000    73.33000000    -3.65000000
   C    102.45000000    74.36000000    -4.54000000
   C    101.21000000    75.08000000    -4.04000000
   O    101.11000000    76.28000000    -4.30000000
   C    102.22000000    73.76000000    -5.93000000
   H    103.85000000    73.58000000    -3.27000000
   H    103.10000000    75.19000000    -4.82000000
   H    103.09000000    73.21000000    -6.30000000
   H    101.43000000    73.01000000    -5.91000000
   H    102.09000000    74.56000000    -6.65000000
   N    100.21000000    74.40000000    -3.46000000
   C     99.00000000    74.99000000    -2.93000000
   C     98.67000000    74.18000000    -1.68000000
   O     98.56000000    72.96000000    -1.58000000
   C     97.83000000    74.91000000    -3.90000000
   C     97.53000000    73.62000000    -4.66000000
   O     98.24000000    72.60000000    -4.54000000
   O     96.53000000    73.67000000    -5.40000000
   H    100.35000000    73.42000000    -3.26000000
   H     99.21000000    76.04000000    -2.69000000
   H     98.00000000    75.74000000    -4.58000000
   H     96.96000000    75.17000000    -3.30000000
   N     98.45000000    74.94000000    -0.61000000
   C     98.27000000    74.41000000     0.73000000
   C     96.79000000    74.28000000     1.06000000
   O     95.96000000    75.13000000     0.71000000
   H     98.49000000    75.92000000    -0.83000000
   H     98.81000000    74.90000000     1.54000000
   H     98.65000000    73.39000000     0.76000000
   N     96.47000000    73.22000000     1.81000000
   C     95.17000000    73.10000000     2.42000000
   C     95.10000000    73.20000000     3.94000000
   O     96.10000000    73.05000000     4.64000000
   C     94.52000000    71.84000000     1.84000000
   C     94.45000000    71.78000000     0.32000000
   N     93.63000000    72.68000000    -0.22000000
   O     95.23000000    71.21000000    -0.45000000
   H     97.20000000    72.57000000     2.05000000
   H     94.56000000    73.96000000     2.16000000
   H     93.55000000    71.73000000     2.32000000
   H     95.16000000    71.03000000     2.18000000
   H     92.90000000    73.02000000     0.40000000
   H     93.69000000    72.93000000    -1.19000000
   N     93.93000000    73.50000000     4.49000000
   C     93.48000000    73.23000000     5.84000000
   C     91.98000000    72.99000000     5.87000000
   O     91.35000000    72.93000000     4.82000000
   H     93.20000000    73.82000000     3.87000000
   H     93.80000000    73.97000000     6.58000000
   H     93.89000000    72.25000000     6.10000000
   N     91.34000000    72.82000000     7.03000000
   C     91.94000000    72.55000000     8.32000000
   C     92.47000000    71.13000000     8.48000000
   O     93.25000000    70.89000000     9.39000000
   C     91.21000000    73.14000000     9.52000000
   C     90.86000000    74.62000000     9.37000000
   O     89.98000000    72.50000000     9.75000000
   H     90.35000000    72.62000000     7.00000000
   H     92.84000000    73.16000000     8.44000000
   H     91.87000000    72.93000000    10.36000000
   H     90.19000000    71.60000000    10.01000000
   H     91.72000000    75.18000000     9.00000000
   H     90.01000000    74.67000000     8.69000000
   H     90.45000000    74.94000000    10.32000000
   N     92.06000000    70.23000000     7.58000000
   C     92.22000000    68.81000000     7.35000000
   C     91.54000000    68.00000000     8.44000000
   O     92.08000000    68.01000000     9.54000000
   C     93.69000000    68.45000000     7.20000000
   C     94.34000000    69.29000000     6.10000000
   C     93.92000000    66.96000000     6.97000000
   C     93.61000000    69.38000000     4.77000000
   H     91.49000000    70.68000000     6.88000000
   H     91.67000000    68.60000000     6.43000000
   H     94.19000000    68.71000000     8.13000000
   H     95.29000000    68.79000000     5.92000000
   H     94.50000000    70.29000000     6.52000000
   H     93.50000000    66.35000000     7.78000000
   H     93.52000000    66.65000000     6.01000000
   H     94.99000000    66.72000000     6.91000000
   H     93.13000000    68.42000000     4.56000000
   H     92.78000000    70.09000000     4.84000000
   H     94.22000000    69.87000000     4.01000000
   N     90.36000000    67.38000000     8.28000000
   C     89.47000000    67.41000000     7.14000000
   C     89.97000000    66.36000000     6.15000000
   O     90.22000000    66.71000000     5.00000000
   C     88.01000000    67.21000000     7.55000000
   C     87.57000000    66.32000000     8.70000000
   O     88.42000000    65.56000000     9.22000000
   O     86.43000000    66.31000000     9.21000000
   H     90.04000000    66.91000000     9.12000000
   H     89.67000000    68.36000000     6.66000000
   H     87.46000000    66.84000000     6.69000000
   H     87.58000000    68.18000000     7.81000000
   N     89.95000000    65.09000000     6.57000000
   C     90.27000000    63.88000000     5.85000000
   C     89.05000000    63.06000000     5.48000000
   O     88.00000000    63.20000000     6.11000000
   C     91.31000000    63.11000000     6.67000000
   C     90.75000000    62.45000000     7.91000000
   C     90.61000000    63.15000000     9.11000000
   C     90.46000000    61.08000000     7.81000000
   C     90.02000000    62.54000000    10.23000000
   C     89.86000000    60.50000000     8.94000000
   C     89.68000000    61.18000000    10.15000000
   H     89.47000000    64.97000000     7.45000000
   H     90.70000000    64.18000000     4.90000000
   H     92.18000000    63.72000000     6.90000000
   H     91.65000000    62.24000000     6.10000000
   H     90.81000000    64.20000000     9.21000000
   H     90.52000000    60.55000000     6.88000000
   H     89.82000000    63.17000000    11.07000000
   H     89.57000000    59.47000000     8.85000000
   H     89.30000000    60.69000000    11.03000000
   N     89.11000000    62.16000000     4.50000000
   C     90.16000000    61.99000000     3.52000000
   C     90.28000000    63.18000000     2.59000000
   O     89.48000000    64.12000000     2.64000000
   C     89.88000000    60.67000000     2.80000000
   C     88.73000000    59.99000000     3.54000000
   C     88.06000000    61.23000000     4.12000000
   H     91.07000000    61.94000000     4.12000000
   H     89.56000000    60.95000000     1.80000000
   H     90.76000000    60.04000000     2.71000000
   H     88.07000000    59.51000000     2.82000000
   H     89.07000000    59.33000000     4.34000000
   H     87.42000000    61.65000000     3.35000000
   H     87.42000000    60.88000000     4.93000000
   N     91.31000000    63.15000000     1.74000000
   C     91.70000000    64.20000000     0.82000000
   C     93.19000000    64.28000000     0.56000000
   O     93.68000000    64.89000000    -0.39000000
   C     90.95000000    63.76000000    -0.43000000
   C     89.46000000    64.11000000    -0.54000000
   C     89.17000000    65.59000000    -0.72000000
   O     88.36000000    66.14000000     0.06000000
   O     89.66000000    66.24000000    -1.67000000
   H     91.74000000    62.24000000     1.71000000
   H     91.38000000    65.18000000     1.19000000
   H     91.12000000    62.70000000    -0.64000000
   H     91.45000000    64.32000000    -1.22000000
   H     88.99000000    63.61000000     0.30000000
   H     89.13000000    63.57000000    -1.43000000
   N     94.13000000    63.89000000     1.43000000
   C     94.03000000    63.55000000     2.83000000
   H     92.98300000    63.56600000     3.13300000
   H     94.44000000    62.55300000     2.99300000
   H     94.59000000    64.27500000     3.42100000
   H     95.02000000    63.95000000     0.96000000
  Ca     98.97000000    70.55000000    -3.09600000
   O     97.70000000    68.29000000    -3.74600000
   H     97.06000000    67.66000000    -3.42600000
   H     98.02000000    67.91000000    -4.56600000
   O     96.24000000    70.72000000    -3.49600000
   H     95.75000000    70.09000000    -2.96600000
   H     95.59000000    71.16000000    -4.03600000
   O     97.72000000    70.23000000    -0.63600000
   H     98.20000000    70.54000000     0.12400000
   H     96.83000000    70.54000000    -0.49600000
   O     99.55000000    70.25000000    -5.75600000
   H     98.76000000    70.46000000    -6.26600000
   H    100.24000000    70.15000000    -6.40600000
   O    100.47600000    68.54000000    -2.66600000
   H    100.21600000    67.68000000    -3.00600000
   H    101.03600000    68.34000000    -1.91600000

Ca 1.70



