%chk=loop2.cluster145.chk
%nprocshared=48
%mem=10GB
%nosave
#b3lyp/svp scf=(tight,noincore) Test 
#IOP(5/87=12) Density=Current Pop=(MK,readradii) iop(6/33=2) iop(6/42=6)

loop2.cluster145 

   -2  1 
   C     61.38000000    46.95000000     8.86000000
   C     62.27000000    46.49000000     7.71000000
   O     62.39000000    45.28000000     7.55000000
   H     60.40700000    46.46500000     8.78200000
   H     61.84400000    46.68200000     9.80900000
   H     61.25100000    48.03100000     8.81000000
   N     62.80000000    47.41000000     6.91000000
   C     63.92000000    47.13000000     6.02000000
   C     63.46000000    46.42000000     4.75000000
   O     64.04000000    46.68000000     3.70000000
   C     64.76000000    48.40000000     5.95000000
   C     63.98000000    49.60000000     5.43000000
   O     64.71000000    50.58000000     5.18000000
   O     62.77000000    49.61000000     5.11000000
   H     62.50000000    48.37000000     6.91000000
   H     64.50000000    46.34000000     6.48000000
   H     65.61000000    48.22000000     5.29000000
   H     65.22000000    48.60000000     6.92000000
   N     62.39000000    45.63000000     4.76000000
   C     61.98000000    44.78000000     3.66000000
   C     60.57000000    44.26000000     3.91000000
   O     60.24000000    43.83000000     5.02000000
   C     63.01000000    43.68000000     3.44000000
   H     61.88000000    45.46000000     5.62000000
   H     62.05000000    45.46000000     2.81000000
   H     63.14000000    43.13000000     4.38000000
   H     62.62000000    43.03000000     2.66000000
   H     64.03000000    43.98000000     3.22000000
   N     59.69000000    44.26000000     2.90000000
   C     59.72000000    44.93000000     1.61000000
   C     59.72000000    46.44000000     1.80000000
   O     59.26000000    47.00000000     2.79000000
   C     58.45000000    44.61000000     0.82000000
   C     57.14000000    44.87000000     1.55000000
   O     56.40000000    45.81000000     1.19000000
   O     56.74000000    44.23000000     2.54000000
   H     58.79000000    43.90000000     3.18000000
   H     60.57000000    44.59000000     1.03000000
   H     58.55000000    43.53000000     0.70000000
   H     58.49000000    45.17000000    -0.11000000
   N     60.13000000    47.15000000     0.75000000
   C     60.43000000    48.57000000     0.83000000
   C     59.57000000    49.41000000    -0.10000000
   O     60.08000000    49.91000000    -1.10000000
   H     60.22000000    46.63000000    -0.11000000
   H     61.45000000    48.55000000     0.47000000
   H     60.52000000    48.97000000     1.84000000
   N     58.30000000    49.71000000     0.17000000
   C     57.43000000    49.40000000     1.29000000
   C     57.87000000    50.02000000     2.61000000
   O     58.18000000    51.21000000     2.60000000
   C     55.98000000    49.77000000     1.01000000
   C     55.35000000    49.31000000    -0.30000000
   N     55.35000000    48.00000000    -0.57000000
   O     54.99000000    50.17000000    -1.09000000
   H     57.99000000    50.43000000    -0.47000000
   H     57.34000000    48.32000000     1.46000000
   H     55.89000000    50.85000000     1.13000000
   H     55.34000000    49.34000000     1.78000000
   H     55.88000000    47.41000000     0.04000000
   H     54.90000000    47.67000000    -1.41000000
   N     57.99000000    49.19000000     3.65000000
   C     58.29000000    49.60000000     5.01000000
   C     57.10000000    49.58000000     5.96000000
   O     57.06000000    50.19000000     7.03000000
   H     57.74000000    48.24000000     3.40000000
   H     58.65000000    50.63000000     4.98000000
   H     59.00000000    48.84000000     5.34000000
   N     56.01000000    48.93000000     5.56000000
   C     54.65000000    49.16000000     6.03000000
   C     53.98000000    47.87000000     6.46000000
   O     54.18000000    46.77000000     5.94000000
   C     53.87000000    49.75000000     4.86000000
   C     54.39000000    51.15000000     4.52000000
   O     53.83000000    48.97000000     3.68000000
   H     56.08000000    48.09000000     5.00000000
   H     54.70000000    49.77000000     6.93000000
   H     52.86000000    49.88000000     5.23000000
   H     53.18000000    48.31000000     3.92000000
   H     54.06000000    51.49000000     3.54000000
   H     53.86000000    51.80000000     5.22000000
   H     55.48000000    51.25000000     4.56000000
   N     53.02000000    47.98000000     7.38000000
   C     52.45000000    46.84000000     8.06000000
   C     51.19000000    46.25000000     7.44000000
   O     50.13000000    46.86000000     7.36000000
   C     52.25000000    47.19000000     9.53000000
   C     53.38000000    46.71000000    10.43000000
   C     51.92000000    48.66000000     9.78000000
   C     54.72000000    47.43000000    10.26000000
   H     52.69000000    48.92000000     7.57000000
   H     53.23000000    46.09000000     7.95000000
   H     51.42000000    46.61000000     9.96000000
   H     53.40000000    45.63000000    10.29000000
   H     53.08000000    47.00000000    11.43000000
   H     51.25000000    49.06000000     9.03000000
   H     51.45000000    48.79000000    10.75000000
   H     52.81000000    49.28000000     9.87000000
   H     55.49000000    46.95000000    10.86000000
   H     55.09000000    47.49000000     9.23000000
   H     54.82000000    48.39000000    10.77000000
   N     51.35000000    44.97000000     7.08000000
   C     50.33000000    44.10000000     6.54000000
   C     49.87000000    43.17000000     7.66000000
   O     50.58000000    43.08000000     8.66000000
   C     50.76000000    43.36000000     5.28000000
   C     52.06000000    42.61000000     5.52000000
   O     53.12000000    43.20000000     5.25000000
   O     52.02000000    41.50000000     6.09000000
   H     52.16000000    44.45000000     7.40000000
   H     49.44000000    44.73000000     6.45000000
   H     50.95000000    44.08000000     4.48000000
   H     49.96000000    42.68000000     4.99000000
   N     48.67000000    42.59000000     7.54000000
   C     48.09000000    41.82000000     8.61000000
   C     48.95000000    40.95000000     9.52000000
   O     49.07000000    41.18000000    10.72000000
   C     47.19000000    42.74000000     9.43000000
   C     46.17000000    42.09000000    10.33000000
   C     46.35000000    41.93000000    11.71000000
   C     45.00000000    41.59000000     9.75000000
   C     45.46000000    41.22000000    12.53000000
   C     44.03000000    40.95000000    10.54000000
   C     44.27000000    40.81000000    11.91000000
   H     48.10000000    42.84000000     6.74000000
   H     47.38000000    41.09000000     8.21000000
   H     46.74000000    43.51000000     8.80000000
   H     47.81000000    43.28000000    10.14000000
   H     47.21000000    42.27000000    12.26000000
   H     44.90000000    41.64000000     8.68000000
   H     45.69000000    40.87000000    13.53000000
   H     43.09000000    40.69000000    10.09000000
   H     43.55000000    40.33000000    12.55000000
   N     49.58000000    39.91000000     8.97000000
   C     50.42000000    39.00000000     9.73000000
   C     51.73000000    39.66000000    10.13000000
   O     52.27000000    39.23000000    11.15000000
   C     50.75000000    37.89000000     8.73000000
   C     50.83000000    38.63000000     7.40000000
   C     49.65000000    39.59000000     7.56000000
   H     49.95000000    38.57000000    10.61000000
   H     51.68000000    37.42000000     9.02000000
   H     49.98000000    37.12000000     8.70000000
   H     51.82000000    39.07000000     7.34000000
   H     50.67000000    37.95000000     6.57000000
   H     49.75000000    40.45000000     6.90000000
   H     48.74000000    39.08000000     7.25000000
   N     52.20000000    40.74000000     9.51000000
   C     53.33000000    41.51000000    10.00000000
   C     53.00000000    42.42000000    11.17000000
   O     53.80000000    42.45000000    12.10000000
   C     54.09000000    42.04000000     8.78000000
   C     55.27000000    42.96000000     9.10000000
   C     56.00000000    43.23000000     7.79000000
   O     56.77000000    42.33000000     7.37000000
   O     55.75000000    44.17000000     7.01000000
   H     51.76000000    41.14000000     8.70000000
   H     54.06000000    40.80000000    10.36000000
   H     53.36000000    42.49000000     8.11000000
   H     54.38000000    41.20000000     8.16000000
   H     55.93000000    42.47000000     9.81000000
   H     54.91000000    43.93000000     9.44000000
   N     51.75000000    42.90000000    11.24000000
   C     51.38000000    43.75000000    12.35000000
   H     50.35700000    43.52700000    12.65200000
   H     52.05300000    43.56800000    13.18800000
   H     51.44900000    44.79500000    12.04700000
   H     51.11000000    42.96000000    10.47000000
  Ca     55.08000000    44.54000000     4.39000000
   O     54.34000000    42.67000000     2.21000000
   H     54.87000000    41.88000000     2.11000000
   H     53.44000000    42.34000000     2.26000000
   O     55.90000000    47.03000000     3.42000000
   H     56.13000000    46.66000000     2.57000000
   H     55.11000000    47.55000000     3.26000000
   O     57.76000000    44.98000000     5.18000000
   H     57.71000000    45.03000000     6.14000000
   H     58.62000000    44.60000000     5.00000000
   O     55.96000000    42.03000000     4.81000000
   H     55.56000000    41.16000000     4.86000000
   H     56.49000000    42.10000000     5.60000000
   O     52.81000000    45.81000000     3.24000000
   H     52.61000000    46.19000000     2.39000000
   H     52.03000000    45.97000000     3.77000000

Ca 1.70



