%chk=loop3.cluster163.chk
%nprocshared=48
%mem=10GB
%nosave
#b3lyp/svp scf=(tight,noincore) Test 
#IOP(5/87=12) Density=Current Pop=(MK,readradii) iop(6/33=2) iop(6/42=6)

loop3.cluster163 

   0  1 
   C    -12.53000000   -27.44000000    57.13000000
   C    -13.08000000   -28.83000000    56.83000000
   O    -13.98000000   -28.92000000    56.00000000
   H    -11.58500000   -27.30300000    56.60500000
   H    -13.24300000   -26.68700000    56.79600000
   H    -12.36700000   -27.33700000    58.20300000
   N    -12.51000000   -29.95000000    57.30000000
   C    -12.84000000   -31.30000000    56.92000000
   C    -12.95000000   -32.12000000    58.20000000
   O    -12.05000000   -32.00000000    59.02000000
   C    -11.79000000   -31.80000000    55.92000000
   C    -11.97000000   -33.23000000    55.43000000
   O    -12.30000000   -34.15000000    56.22000000
   O    -11.66000000   -33.53000000    54.26000000
   H    -11.84000000   -29.90000000    58.06000000
   H    -13.77000000   -31.35000000    56.35000000
   H    -10.86000000   -31.87000000    56.48000000
   H    -11.61000000   -31.10000000    55.10000000
   N    -14.02000000   -32.89000000    58.40000000
   C    -14.36000000   -33.64000000    59.59000000
   C    -13.31000000   -34.66000000    59.99000000
   O    -13.32000000   -35.04000000    61.16000000
   C    -15.72000000   -34.30000000    59.36000000
   C    -15.64000000   -35.51000000    58.44000000
   C    -16.96000000   -36.27000000    58.28000000
   C    -16.92000000   -37.66000000    57.67000000
   N    -16.07000000   -37.79000000    56.47000000
   H    -14.70000000   -32.96000000    57.65000000
   H    -14.45000000   -32.92000000    60.40000000
   H    -16.47000000   -33.55000000    59.09000000
   H    -16.08000000   -34.70000000    60.30000000
   H    -15.00000000   -36.29000000    58.85000000
   H    -15.36000000   -35.22000000    57.42000000
   H    -17.77000000   -35.79000000    57.74000000
   H    -17.45000000   -36.37000000    59.25000000
   H    -17.89000000   -38.10000000    57.45000000
   H    -16.55000000   -38.26000000    58.50000000
   H    -15.14000000   -37.47000000    56.70000000
   H    -16.01000000   -38.73000000    56.12000000
   H    -16.41000000   -37.24000000    55.69000000
   N    -12.42000000   -35.13000000    59.10000000
   C    -11.36000000   -36.09000000    59.32000000
   C     -9.98000000   -35.58000000    58.96000000
   O     -8.96000000   -36.21000000    59.24000000
   C    -11.76000000   -37.37000000    58.59000000
   C    -12.12000000   -37.26000000    57.11000000
   O    -13.30000000   -37.22000000    56.70000000
   O    -11.20000000   -37.08000000    56.29000000
   H    -12.45000000   -34.69000000    58.19000000
   H    -11.17000000   -36.28000000    60.38000000
   H    -12.68000000   -37.70000000    59.07000000
   H    -11.02000000   -38.16000000    58.72000000
   N     -9.94000000   -34.48000000    58.20000000
   C     -8.75000000   -33.74000000    57.84000000
   C     -8.03000000   -34.31000000    56.63000000
   O     -6.92000000   -33.84000000    56.37000000
   H    -10.82000000   -34.07000000    57.96000000
   H     -8.11000000   -33.75000000    58.73000000
   H     -9.03000000   -32.70000000    57.64000000
   N     -8.52000000   -35.31000000    55.90000000
   C     -7.85000000   -36.08000000    54.86000000
   C     -8.61000000   -36.05000000    53.55000000
   O     -9.84000000   -36.02000000    53.51000000
   C     -7.62000000   -37.48000000    55.42000000
   C     -8.27000000   -38.61000000    54.63000000
   N     -9.46000000   -39.00000000    55.10000000
   O     -7.69000000   -39.20000000    53.73000000
   H     -9.46000000   -35.61000000    56.08000000
   H     -6.89000000   -35.58000000    54.72000000
   H     -7.73000000   -37.53000000    56.51000000
   H     -6.55000000   -37.63000000    55.29000000
   H    -10.03000000   -38.47000000    55.74000000
   H     -9.74000000   -39.96000000    54.94000000
   N     -7.86000000   -36.01000000    52.45000000
   C     -8.27000000   -35.93000000    51.06000000
   C     -9.02000000   -37.10000000    50.44000000
   O     -9.66000000   -36.90000000    49.42000000
   H     -6.85000000   -35.99000000    52.52000000
   H     -7.39000000   -35.67000000    50.47000000
   H     -8.98000000   -35.11000000    50.93000000
   N     -8.96000000   -38.31000000    51.00000000
   C     -9.58000000   -39.48000000    50.40000000
   C    -11.09000000   -39.40000000    50.54000000
   O    -11.55000000   -39.00000000    51.61000000
   C     -9.03000000   -40.78000000    50.98000000
   C     -9.74000000   -42.03000000    50.53000000
   C    -10.55000000   -42.67000000    51.48000000
   C     -9.63000000   -42.54000000    49.23000000
   C    -11.16000000   -43.89000000    51.14000000
   C    -10.36000000   -43.68000000    48.88000000
   C    -11.17000000   -44.37000000    49.81000000
   O    -11.78000000   -45.53000000    49.46000000
   H     -8.60000000   -38.37000000    51.94000000
   H     -9.42000000   -39.36000000    49.33000000
   H     -9.18000000   -40.71000000    52.06000000
   H     -7.96000000   -40.82000000    50.79000000
   H    -10.64000000   -42.45000000    52.53000000
   H     -8.93000000   -42.04000000    48.57000000
   H    -11.72000000   -44.46000000    51.86000000
   H    -10.14000000   -44.04000000    47.89000000
   H    -11.66000000   -45.86000000    48.56000000
   N    -11.84000000   -39.78000000    49.50000000
   C    -13.27000000   -40.03000000    49.39000000
   C    -13.64000000   -41.33000000    50.09000000
   O    -13.31000000   -41.57000000    51.25000000
   C    -14.10000000   -38.79000000    49.72000000
   C    -15.56000000   -39.16000000    49.50000000
   C    -13.58000000   -37.66000000    48.83000000
   C    -16.47000000   -37.95000000    49.66000000
   H    -11.30000000   -40.13000000    48.73000000
   H    -13.35000000   -40.24000000    48.33000000
   H    -14.00000000   -38.51000000    50.77000000
   H    -15.86000000   -39.94000000    50.20000000
   H    -15.78000000   -39.57000000    48.52000000
   H    -13.52000000   -37.99000000    47.79000000
   H    -14.12000000   -36.73000000    48.99000000
   H    -12.59000000   -37.26000000    49.07000000
   H    -17.54000000   -38.17000000    49.74000000
   H    -16.23000000   -37.46000000    50.60000000
   H    -16.34000000   -37.17000000    48.90000000
   N    -14.43000000   -42.12000000    49.36000000
   C    -15.14000000   -43.26000000    49.90000000
   C    -15.54000000   -44.27000000    48.83000000
   O    -15.75000000   -45.45000000    49.12000000
   C    -16.44000000   -42.83000000    50.58000000
   O    -17.20000000   -42.14000000    49.61000000
   H    -14.59000000   -41.93000000    48.39000000
   H    -14.53000000   -43.81000000    50.61000000
   H    -16.15000000   -42.10000000    51.33000000
   H    -16.99000000   -43.70000000    50.95000000
   H    -17.93000000   -41.78000000    50.11000000
   N    -15.72000000   -43.97000000    47.54000000
   C    -16.19000000   -44.83000000    46.48000000
   C    -17.27000000   -45.84000000    46.84000000
   O    -17.11000000   -47.05000000    46.65000000
   C    -15.04000000   -45.43000000    45.66000000
   H    -15.57000000   -42.99000000    47.33000000
   H    -16.66000000   -44.16000000    45.76000000
   H    -14.54000000   -46.15000000    46.32000000
   H    -15.43000000   -46.00000000    44.82000000
   H    -14.31000000   -44.65000000    45.46000000
   N    -18.49000000   -45.45000000    47.20000000
   C    -19.08000000   -44.14000000    47.34000000
   C    -19.56000000   -43.59000000    46.00000000
   O    -19.88000000   -44.45000000    45.18000000
   C    -20.16000000   -44.12000000    48.41000000
   H    -19.12000000   -46.19000000    47.49000000
   H    -18.27000000   -43.50000000    47.68000000
   H    -20.56000000   -43.12000000    48.57000000
   H    -20.94000000   -44.82000000    48.11000000
   H    -19.91000000   -44.51000000    49.40000000
   N    -19.56000000   -42.28000000    45.72000000
   C    -18.97000000   -41.18000000    46.45000000
   C    -18.22000000   -40.22000000    45.54000000
   O    -17.09000000   -39.78000000    45.71000000
   C    -20.04000000   -40.43000000    47.23000000
   C    -19.43000000   -39.51000000    48.28000000
   C    -20.57000000   -38.87000000    49.07000000
   O    -21.01000000   -37.77000000    48.68000000
   O    -20.88000000   -39.46000000    50.13000000
   H    -20.09000000   -42.15000000    44.87000000
   H    -18.29000000   -41.58000000    47.20000000
   H    -20.62000000   -41.18000000    47.77000000
   H    -20.59000000   -39.79000000    46.53000000
   H    -18.84000000   -38.70000000    47.85000000
   H    -18.79000000   -40.01000000    49.01000000
   N    -18.94000000   -39.84000000    44.48000000
   C    -18.51000000   -38.96000000    43.40000000
   H    -17.49200000   -39.21600000    43.10800000
   H    -19.17400000   -39.08200000    42.54500000
   H    -18.54100000   -37.92500000    43.74000000
   H    -19.83000000   -40.30000000    44.39000000
  Ca    -12.53000000   -36.08000000    54.48000000
   O    -14.88000000   -34.52000000    54.78000000
   H    -15.58000000   -34.42000000    54.14000000
   H    -15.28000000   -34.27000000    55.61000000
   O    -12.22000000   -38.65000000    54.09000000
   H    -12.05000000   -38.95000000    53.20000000
   H    -12.25000000   -39.44000000    54.62000000
   O    -12.59000000   -36.49000000    51.79000000
   H    -12.92000000   -35.99000000    51.04000000
   H    -12.58000000   -37.40000000    51.48000000
   O    -14.72000000   -37.21000000    53.84000000
   H    -15.60000000   -36.85000000    53.82000000
   H    -14.82000000   -38.11000000    53.53000000

Ca 1.70



