%chk=loop3.cluster81.chk
%nprocshared=48
%mem=10GB
%nosave
#b3lyp/svp scf=(tight,noincore) Test 
#IOP(5/87=12) Density=Current Pop=(MK,readradii) iop(6/33=2) iop(6/42=6)

loop3.cluster81 

   0  1 
   C    106.06000000    41.68000000    13.41000000
   C    107.56000000    41.68000000    13.18000000
   O    108.01000000    40.89000000    12.35000000
   H    105.54900000    41.47500000    12.46900000
   H    105.80300000    40.91000000    14.13800000
   H    105.75000000    42.65500000    13.78700000
   N    108.33000000    42.59000000    13.80000000
   C    109.60000000    43.07000000    13.32000000
   C    110.75000000    42.25000000    13.90000000
   O    110.73000000    42.01000000    15.10000000
   C    109.79000000    44.55000000    13.64000000
   C    109.62000000    44.92000000    15.10000000
   O    108.59000000    44.58000000    15.72000000
   O    110.54000000    45.47000000    15.75000000
   H    107.89000000    43.15000000    14.51000000
   H    109.76000000    43.02000000    12.24000000
   H    109.10000000    45.13000000    13.03000000
   H    110.75000000    44.88000000    13.23000000
   N    111.85000000    41.98000000    13.20000000
   C    113.11000000    41.50000000    13.73000000
   C    113.19000000    39.98000000    13.63000000
   O    114.11000000    39.46000000    14.26000000
   C    114.29000000    41.98000000    12.87000000
   C    114.29000000    43.47000000    12.54000000
   C    115.57000000    43.66000000    11.73000000
   C    116.88000000    43.60000000    12.51000000
   N    118.00000000    44.06000000    11.67000000
   H    111.84000000    42.22000000    12.22000000
   H    113.15000000    41.83000000    14.77000000
   H    114.16000000    41.39000000    11.96000000
   H    115.23000000    41.66000000    13.32000000
   H    114.40000000    44.06000000    13.46000000
   H    113.41000000    43.68000000    11.94000000
   H    115.44000000    44.64000000    11.27000000
   H    115.75000000    42.97000000    10.91000000
   H    117.06000000    42.63000000    12.96000000
   H    116.80000000    44.20000000    13.41000000
   H    118.13000000    43.41000000    10.91000000
   H    117.86000000    45.01000000    11.37000000
   H    118.87000000    44.10000000    12.18000000
   N    112.27000000    39.20000000    13.05000000
   C    112.41000000    37.76000000    12.98000000
   C    112.21000000    37.26000000    11.56000000
   O    111.49000000    36.28000000    11.37000000
   C    111.40000000    37.13000000    13.94000000
   C    110.04000000    37.81000000    14.00000000
   O    109.49000000    38.16000000    12.93000000
   O    109.36000000    37.89000000    15.04000000
   H    111.46000000    39.56000000    12.57000000
   H    113.41000000    37.44000000    13.26000000
   H    111.78000000    37.32000000    14.94000000
   H    111.31000000    36.06000000    13.76000000
   N    112.82000000    37.94000000    10.58000000
   C    112.43000000    37.76000000     9.20000000
   C    110.96000000    38.03000000     8.88000000
   O    110.18000000    38.30000000     9.79000000
   H    113.22000000    38.84000000    10.83000000
   H    112.63000000    36.76000000     8.81000000
   H    113.00000000    38.45000000     8.58000000
   N    110.49000000    38.10000000     7.63000000
   C    111.15000000    37.75000000     6.39000000
   C    110.14000000    37.72000000     5.26000000
   O    109.36000000    38.65000000     5.06000000
   C    112.17000000    38.86000000     6.10000000
   C    112.62000000    38.74000000     4.66000000
   N    113.38000000    37.70000000     4.30000000
   O    112.54000000    39.69000000     3.88000000
   H    109.56000000    38.46000000     7.55000000
   H    111.66000000    36.79000000     6.40000000
   H    113.09000000    38.77000000     6.68000000
   H    111.70000000    39.83000000     6.26000000
   H    113.75000000    37.06000000     4.99000000
   H    113.89000000    37.77000000     3.43000000
   N    109.97000000    36.61000000     4.53000000
   C    110.72000000    35.37000000     4.50000000
   C    110.18000000    34.28000000     5.42000000
   O    109.66000000    34.62000000     6.48000000
   H    109.18000000    36.65000000     3.91000000
   H    111.77000000    35.54000000     4.71000000
   H    110.63000000    34.91000000     3.51000000
   N    110.39000000    33.02000000     5.03000000
   C    110.06000000    31.78000000     5.70000000
   C    111.20000000    30.78000000     5.62000000
   O    111.33000000    30.06000000     4.63000000
   C    108.73000000    31.27000000     5.16000000
   C    107.56000000    32.23000000     5.22000000
   C    107.07000000    32.64000000     6.47000000
   C    107.04000000    32.82000000     4.06000000
   C    106.05000000    33.60000000     6.51000000
   C    106.05000000    33.81000000     4.08000000
   C    105.52000000    34.16000000     5.33000000
   O    104.60000000    35.17000000     5.36000000
   H    110.90000000    32.88000000     4.17000000
   H    109.73000000    31.95000000     6.73000000
   H    108.42000000    30.33000000     5.61000000
   H    108.86000000    31.01000000     4.11000000
   H    107.50000000    32.17000000     7.34000000
   H    107.57000000    32.58000000     3.15000000
   H    105.77000000    33.93000000     7.50000000
   H    105.71000000    34.27000000     3.16000000
   H    104.37000000    35.48000000     4.48000000
   N    111.84000000    30.52000000     6.76000000
   C    112.72000000    29.37000000     6.87000000
   C    112.08000000    27.99000000     6.85000000
   O    112.71000000    27.04000000     6.39000000
   C    113.77000000    29.52000000     7.97000000
   C    113.14000000    29.07000000     9.29000000
   C    115.04000000    28.70000000     7.72000000
   C    113.96000000    29.67000000    10.43000000
   H    111.56000000    30.98000000     7.61000000
   H    113.32000000    29.38000000     5.96000000
   H    114.01000000    30.58000000     8.05000000
   H    113.22000000    27.99000000     9.32000000
   H    112.10000000    29.40000000     9.33000000
   H    114.79000000    27.64000000     7.65000000
   H    115.56000000    28.96000000     6.80000000
   H    115.66000000    28.65000000     8.62000000
   H    114.96000000    30.02000000    10.20000000
   H    113.55000000    30.58000000    10.88000000
   H    113.96000000    28.91000000    11.22000000
   N    110.85000000    27.90000000     7.36000000
   C    109.97000000    26.75000000     7.26000000
   C    109.54000000    26.06000000     8.55000000
   O    108.83000000    25.06000000     8.47000000
   C    108.71000000    27.21000000     6.54000000
   O    108.15000000    28.27000000     7.27000000
   H    110.39000000    28.77000000     7.57000000
   H    110.49000000    25.98000000     6.70000000
   H    107.97000000    26.41000000     6.47000000
   H    108.97000000    27.56000000     5.54000000
   H    107.39000000    28.56000000     6.76000000
   N    109.89000000    26.60000000     9.72000000
   C    109.41000000    26.12000000    11.00000000
   C    109.49000000    27.18000000    12.08000000
   O    110.31000000    28.09000000    12.00000000
   C    110.30000000    24.95000000    11.42000000
   H    110.49000000    27.41000000     9.83000000
   H    108.38000000    25.76000000    10.95000000
   H    109.95000000    24.78000000    12.43000000
   H    110.06000000    24.03000000    10.88000000
   H    111.36000000    25.20000000    11.41000000
   N    108.59000000    27.13000000    13.08000000
   C    108.23000000    28.12000000    14.07000000
   C    108.09000000    29.59000000    13.69000000
   O    107.99000000    30.47000000    14.54000000
   C    109.17000000    27.86000000    15.24000000
   H    107.89000000    26.41000000    13.07000000
   H    107.20000000    27.83000000    14.27000000
   H    109.23000000    26.80000000    15.49000000
   H    110.15000000    28.20000000    14.90000000
   H    108.91000000    28.47000000    16.11000000
   N    108.00000000    29.90000000    12.39000000
   C    107.70000000    31.19000000    11.81000000
   C    106.33000000    31.68000000    12.24000000
   O    106.10000000    32.87000000    12.43000000
   C    107.86000000    30.95000000    10.31000000
   C    109.26000000    30.65000000     9.78000000
   C    110.35000000    31.71000000     9.88000000
   O    110.55000000    32.24000000    10.99000000
   O    110.96000000    32.07000000     8.85000000
   H    108.05000000    29.13000000    11.74000000
   H    108.48000000    31.84000000    12.22000000
   H    107.43000000    31.81000000     9.79000000
   H    107.15000000    30.17000000    10.02000000
   H    109.19000000    30.39000000     8.73000000
   H    109.51000000    29.73000000    10.31000000
   N    105.37000000    30.76000000    12.31000000
   C    103.95000000    31.06000000    12.39000000
   H    103.39700000    30.14500000    12.60200000
   H    103.77500000    31.78300000    13.18700000
   H    103.61200000    31.47600000    11.44100000
   H    105.66000000    29.79000000    12.25000000
  Ca    108.94000000    36.42000000    11.16000000
   O    106.93000000    34.70000000    10.60000000
   H    106.03000000    35.02000000    10.52000000
   H    106.87000000    33.99000000    11.24000000
   O    109.59000000    34.24000000    12.61000000
   H    109.74100000    34.06000000    13.54000000
   H    109.94000000    33.48000000    12.15000000
   O    107.39100000    38.52000000    10.98000000
   H    106.80000000    39.06000000    10.45000000
   H    107.69000000    39.11000000    11.67000000
   O    110.11000000    34.76000000     9.28000000
   H    110.41100000    33.89000000     9.53000000
   H    109.78100000    34.65000000     8.38000000
   O    107.98000000    36.64000000     8.46000000
   H    108.30000000    35.82000000     8.07000000
   H    107.31100000    36.95000000     7.85000000
   O    107.14100000    36.10000000    13.28000000
   H    106.93000000    36.40000000    14.16000000
   H    106.31000000    35.75000000    12.95000000

Ca 1.70



