%chk=loop2.cluster159.chk
%nprocshared=48
%mem=10GB
%nosave
#b3lyp/svp scf=(tight,noincore) Test 
#IOP(5/87=12) Density=Current Pop=(MK,readradii) iop(6/33=2) iop(6/42=6)

loop2.cluster159 

   -2  1 
   C     50.58000000    48.73000000    16.94000000
   C     51.18000000    48.92000000    15.56000000
   O     50.97000000    48.16000000    14.61000000
   H     49.56300000    48.35000000    16.84400000
   H     51.18200000    48.01700000    17.50300000
   H     50.56300000    49.68600000    17.46400000
   N     52.22000000    49.75000000    15.42000000
   C     52.75000000    50.14000000    14.13000000
   C     51.65000000    50.87000000    13.37000000
   O     51.43000000    52.07000000    13.48000000
   C     54.01000000    50.99000000    14.31000000
   C     54.74000000    51.39000000    13.03000000
   O     54.37000000    50.91000000    11.94000000
   O     55.74000000    52.13000000    13.15000000
   H     52.48000000    50.22000000    16.28000000
   H     53.04000000    49.22000000    13.62000000
   H     54.73000000    50.38000000    14.86000000
   H     53.82000000    51.86000000    14.94000000
   N     50.87000000    50.12000000    12.59000000
   C     49.72000000    50.65000000    11.89000000
   C     48.68000000    49.56000000    11.67000000
   O     49.02000000    48.40000000    11.91000000
   C     50.24000000    51.20000000    10.57000000
   H     50.91000000    49.11000000    12.60000000
   H     49.26000000    51.41000000    12.53000000
   H     51.00000000    50.56000000    10.11000000
   H     49.40000000    51.42000000     9.90000000
   H     50.74000000    52.14000000    10.81000000
   N     47.42000000    49.80000000    11.31000000
   C     46.55000000    50.96000000    11.20000000
   C     46.38000000    51.53000000    12.60000000
   O     46.13000000    50.75000000    13.52000000
   C     45.26000000    50.61000000    10.47000000
   C     44.40000000    49.51000000    11.08000000
   O     44.81000000    48.46000000    11.63000000
   O     43.17000000    49.62000000    10.95000000
   H     46.86000000    48.96000000    11.35000000
   H     47.13000000    51.64000000    10.58000000
   H     45.63000000    50.23000000     9.52000000
   H     44.72000000    51.53000000    10.26000000
   N     46.32000000    52.86000000    12.76000000
   C     46.13000000    53.47000000    14.06000000
   C     47.34000000    53.54000000    14.97000000
   O     48.44000000    53.24000000    14.51000000
   H     46.53000000    53.47000000    11.99000000
   H     45.24000000    53.03000000    14.53000000
   H     45.98000000    54.51000000    13.79000000
   N     47.30000000    54.11000000    16.18000000
   C     46.11000000    54.58000000    16.86000000
   C     46.05000000    53.87000000    18.21000000
   O     46.57000000    54.35000000    19.21000000
   C     46.12000000    56.10000000    17.06000000
   C     45.83000000    56.82000000    15.75000000
   N     46.85000000    57.05000000    14.92000000
   O     44.68000000    57.20000000    15.52000000
   H     48.16000000    54.35000000    16.65000000
   H     45.26000000    54.36000000    16.22000000
   H     47.10000000    56.39000000    17.46000000
   H     45.45000000    56.43000000    17.85000000
   H     47.82000000    56.87000000    15.13000000
   H     46.72000000    57.38000000    13.97000000
   N     45.29000000    52.78000000    18.31000000
   C     45.06000000    52.18000000    19.60000000
   C     43.93000000    51.17000000    19.76000000
   O     43.49000000    51.05000000    20.90000000
   H     44.87000000    52.32000000    17.51000000
   H     45.06000000    52.96000000    20.36000000
   H     45.99000000    51.66000000    19.82000000
   N     43.50000000    50.49000000    18.69000000
   C     42.66000000    49.31000000    18.72000000
   C     43.07000000    48.37000000    17.59000000
   O     43.64000000    48.80000000    16.58000000
   C     41.18000000    49.62000000    18.54000000
   C     40.64000000    50.41000000    19.73000000
   O     40.92000000    50.49000000    17.45000000
   H     43.70000000    50.88000000    17.78000000
   H     42.95000000    48.92000000    19.69000000
   H     40.67000000    48.67000000    18.45000000
   H     40.44000000    49.95000000    16.82000000
   H     41.00000000    50.05000000    20.70000000
   H     40.93000000    51.46000000    19.66000000
   H     39.55000000    50.36000000    19.72000000
   N     42.92000000    47.05000000    17.75000000
   C     43.39000000    45.96000000    16.92000000
   C     42.20000000    45.06000000    16.63000000
   O     41.33000000    44.91000000    17.49000000
   C     44.62000000    45.26000000    17.47000000
   C     45.85000000    46.16000000    17.58000000
   C     44.31000000    44.81000000    18.90000000
   C     47.09000000    45.30000000    17.78000000
   H     42.59000000    46.77000000    18.66000000
   H     43.62000000    46.42000000    15.96000000
   H     44.90000000    44.38000000    16.89000000
   H     45.78000000    47.04000000    18.22000000
   H     46.03000000    46.58000000    16.59000000
   H     44.09000000    45.66000000    19.55000000
   H     43.38000000    44.26000000    18.87000000
   H     45.18000000    44.28000000    19.29000000
   H     46.94000000    44.50000000    17.06000000
   H     47.98000000    45.83000000    17.45000000
   H     47.15000000    44.97000000    18.82000000
   N     42.15000000    44.40000000    15.47000000
   C     40.99000000    43.64000000    15.02000000
   C     41.47000000    42.55000000    14.08000000
   O     42.38000000    42.80000000    13.29000000
   C     39.96000000    44.58000000    14.41000000
   C     40.42000000    45.57000000    13.35000000
   O     40.82000000    46.68000000    13.77000000
   O     40.49000000    45.36000000    12.12000000
   H     42.76000000    44.68000000    14.73000000
   H     40.62000000    43.14000000    15.92000000
   H     39.49000000    45.12000000    15.24000000
   H     39.15000000    44.00000000    13.95000000
   N     40.96000000    41.32000000    14.17000000
   C     41.14000000    40.21000000    13.25000000
   C     42.53000000    39.63000000    13.48000000
   O     42.77000000    39.32000000    14.65000000
   C     40.06000000    39.16000000    13.46000000
   C     40.37000000    37.81000000    12.85000000
   C     40.90000000    36.81000000    13.68000000
   C     39.96000000    37.52000000    11.54000000
   C     40.96000000    35.49000000    13.24000000
   C     40.03000000    36.20000000    11.09000000
   C     40.61000000    35.22000000    11.91000000
   H     40.36000000    41.20000000    14.97000000
   H     41.04000000    40.65000000    12.25000000
   H     39.11000000    39.59000000    13.17000000
   H     39.95000000    39.02000000    14.53000000
   H     41.16000000    37.07000000    14.70000000
   H     39.52000000    38.25000000    10.87000000
   H     41.55000000    34.74000000    13.75000000
   H     39.67000000    35.92000000    10.11000000
   H     40.72000000    34.21000000    11.54000000
   N     43.43000000    39.52000000    12.51000000
   C     44.74000000    38.93000000    12.74000000
   C     45.69000000    39.94000000    13.37000000
   O     46.80000000    39.57000000    13.74000000
   C     45.15000000    38.40000000    11.37000000
   C     44.44000000    39.40000000    10.45000000
   C     43.10000000    39.68000000    11.11000000
   H     44.71000000    38.01000000    13.33000000
   H     46.21000000    38.38000000    11.15000000
   H     44.74000000    37.40000000    11.27000000
   H     45.08000000    40.27000000    10.57000000
   H     44.37000000    39.10000000     9.40000000
   H     42.88000000    40.74000000    10.95000000
   H     42.37000000    38.97000000    10.73000000
   N     45.34000000    41.22000000    13.57000000
   C     46.33000000    42.21000000    13.94000000
   C     46.98000000    42.07000000    15.30000000
   O     48.03000000    42.64000000    15.57000000
   C     45.59000000    43.54000000    13.80000000
   C     45.31000000    43.97000000    12.36000000
   C     44.20000000    45.02000000    12.26000000
   O     43.82000000    45.66000000    13.27000000
   O     43.70000000    45.22000000    11.14000000
   H     44.43000000    41.53000000    13.25000000
   H     47.08000000    42.16000000    13.15000000
   H     46.18000000    44.30000000    14.31000000
   H     44.65000000    43.35000000    14.30000000
   H     45.06000000    43.04000000    11.85000000
   H     46.21000000    44.39000000    11.93000000
   N     46.50000000    41.21000000    16.20000000
   C     47.01000000    41.09000000    17.55000000
   H     47.89000000    41.72300000    17.66300000
   H     46.24400000    41.40600000    18.25800000
   H     47.28100000    40.05300000    17.74600000
   H     45.57000000    40.85000000    16.00000000
  Ca     42.41000000    47.37000000    11.93000000
   O     41.33000000    47.26000000     9.42000000
   H     40.41000000    47.13000000     9.20000000
   H     41.81000000    46.68000000     8.83000000
   O     40.43000000    49.17000000    11.96000000
   H     39.84000000    49.41000000    12.68000000
   H     40.08000000    49.64000000    11.20000000
   O     43.17000000    49.02000000    13.93000000
   H     43.26000000    48.79000000    14.86000000
   H     44.05000000    49.28000000    13.66000000

Ca 1.70



