%chk=loop3.cluster204.chk
%nprocshared=48
%mem=10GB
%nosave
#b3lyp/svp scf=(tight,noincore) Test 
#IOP(5/87=12) Density=Current Pop=(MK,readradii) iop(6/33=2) iop(6/42=6)

loop3.cluster204 

   0  1 
   C     42.02000000     6.54000000     4.48000000
   C     40.65000000     6.98000000     3.98000000
   O     40.25000000     6.54000000     2.91000000
   H     42.71400000     7.37800000     4.42100000
   H     41.94000000     6.20800000     5.51500000
   H     42.38700000     5.72100000     3.86200000
   N     39.91000000     7.73000000     4.80000000
   C     38.62000000     8.24000000     4.38000000
   C     37.38000000     7.78000000     5.12000000
   O     37.37000000     7.49000000     6.31000000
   C     38.69000000     9.77000000     4.43000000
   C     39.73000000    10.53000000     3.62000000
   O     39.82000000    11.77000000     3.78000000
   O     40.52000000     9.98000000     2.83000000
   H     40.30000000     7.99000000     5.69000000
   H     38.42000000     7.99000000     3.34000000
   H     38.78000000    10.14000000     5.45000000
   H     37.68000000    10.08000000     4.13000000
   N     36.22000000     7.75000000     4.45000000
   C     34.92000000     7.33000000     4.93000000
   C     34.35000000     8.25000000     6.01000000
   O     33.14000000     8.36000000     6.18000000
   C     34.91000000     5.84000000     5.23000000
   C     33.46000000     5.37000000     5.31000000
   C     33.45000000     3.88000000     5.62000000
   C     32.06000000     3.26000000     5.51000000
   N     32.08000000     1.82000000     5.83000000
   H     36.22000000     7.99000000     3.47000000
   H     34.18000000     7.43000000     4.13000000
   H     35.35000000     5.64000000     6.21000000
   H     35.46000000     5.30000000     4.46000000
   H     32.92000000     5.52000000     4.38000000
   H     33.00000000     5.80000000     6.20000000
   H     33.79000000     3.72000000     6.64000000
   H     34.06000000     3.26000000     4.96000000
   H     31.66000000     3.39000000     4.51000000
   H     31.37000000     3.72000000     6.22000000
   H     32.50000000     1.35000000     5.04000000
   H     32.56000000     1.65000000     6.71000000
   H     31.17000000     1.42000000     5.98000000
   N     35.13000000     9.06000000     6.72000000
   C     34.69000000    10.09000000     7.64000000
   C     35.45000000    11.35000000     7.28000000
   O     36.62000000    11.36000000     6.90000000
   C     34.95000000     9.75000000     9.11000000
   C     34.34000000    10.78000000    10.05000000
   O     33.26000000    11.33000000     9.73000000
   O     34.83000000    10.92000000    11.19000000
   H     36.11000000     9.11000000     6.45000000
   H     33.66000000    10.29000000     7.38000000
   H     36.01000000     9.58000000     9.31000000
   H     34.47000000     8.79000000     9.33000000
   N     34.85000000    12.53000000     7.45000000
   C     35.39000000    13.87000000     7.36000000
   C     35.38000000    14.58000000     8.71000000
   O     34.42000000    14.42000000     9.46000000
   H     33.92000000    12.54000000     7.83000000
   H     34.81000000    14.41000000     6.61000000
   H     36.43000000    13.87000000     7.03000000
   N     36.40000000    15.39000000     8.99000000
   C     36.57000000    16.01000000    10.29000000
   C     37.16000000    17.42000000    10.25000000
   O     37.35000000    18.05000000    11.28000000
   C     37.39000000    15.10000000    11.19000000
   C     36.65000000    13.80000000    11.48000000
   N     37.16000000    12.67000000    10.97000000
   O     35.62000000    13.68000000    12.14000000
   H     37.06000000    15.56000000     8.25000000
   H     35.60000000    16.14000000    10.79000000
   H     37.54000000    15.57000000    12.16000000
   H     38.38000000    14.95000000    10.77000000
   H     37.78000000    12.78000000    10.18000000
   H     36.55000000    11.88000000    11.13000000
   N     37.58000000    17.83000000     9.05000000
   C     38.09000000    19.15000000     8.77000000
   C     39.31000000    19.38000000     9.66000000
   O     40.24000000    18.57000000     9.68000000
   H     37.47000000    17.24000000     8.24000000
   H     37.42000000    19.97000000     9.01000000
   H     38.44000000    19.30000000     7.74000000
   N     39.27000000    20.49000000    10.39000000
   C     40.25000000    20.90000000    11.37000000
   C     40.33000000    19.94000000    12.56000000
   O     41.12000000    20.20000000    13.47000000
   C     41.60000000    21.26000000    10.76000000
   C     41.70000000    22.35000000     9.72000000
   C     42.94000000    22.47000000     9.09000000
   C     40.70000000    23.30000000     9.45000000
   C     43.15000000    23.37000000     8.04000000
   C     40.92000000    24.29000000     8.49000000
   C     42.11000000    24.27000000     7.74000000
   O     42.40000000    25.23000000     6.81000000
   H     38.44000000    21.06000000    10.34000000
   H     39.92000000    21.83000000    11.84000000
   H     42.00000000    20.34000000    10.33000000
   H     42.12000000    21.54000000    11.67000000
   H     43.73000000    21.76000000     9.30000000
   H     39.69000000    23.21000000     9.83000000
   H     44.13000000    23.36000000     7.58000000
   H     40.16000000    25.02000000     8.28000000
   H     41.64000000    25.69000000     6.46000000
   N     39.61000000    18.82000000    12.59000000
   C     39.34000000    18.04000000    13.78000000
   C     38.80000000    18.77000000    15.00000000
   O     37.73000000    18.48000000    15.54000000
   C     40.56000000    17.20000000    14.17000000
   C     41.39000000    16.58000000    13.05000000
   C     40.16000000    16.05000000    15.09000000
   C     42.39000000    17.36000000    12.21000000
   H     39.00000000    18.63000000    11.81000000
   H     38.61000000    17.27000000    13.54000000
   H     41.22000000    17.89000000    14.69000000
   H     40.73000000    15.99000000    12.43000000
   H     42.02000000    15.80000000    13.48000000
   H     41.05000000    15.50000000    15.40000000
   H     39.69000000    16.31000000    16.03000000
   H     39.53000000    15.32000000    14.58000000
   H     42.91000000    16.61000000    11.61000000
   H     41.85000000    18.04000000    11.55000000
   H     43.15000000    17.89000000    12.78000000
   N     39.42000000    19.84000000    15.49000000
   C     38.85000000    20.66000000    16.55000000
   C     38.99000000    19.80000000    17.80000000
   O     38.10000000    19.84000000    18.65000000
   C     39.39000000    22.07000000    16.74000000
   O     40.14000000    22.48000000    15.62000000
   H     40.10000000    20.32000000    14.92000000
   H     37.82000000    20.79000000    16.24000000
   H     40.03000000    22.03000000    17.62000000
   H     38.62000000    22.83000000    16.85000000
   H     40.73000000    23.18000000    15.93000000
   N     40.03000000    18.98000000    17.96000000
   C     40.20000000    17.91000000    18.91000000
   C     39.07000000    16.90000000    19.04000000
   O     38.95000000    16.32000000    20.12000000
   C     40.68000000    18.50000000    20.23000000
   H     40.74000000    19.01000000    17.24000000
   H     40.99000000    17.28000000    18.50000000
   H     41.02000000    17.69000000    20.88000000
   H     41.55000000    19.15000000    20.10000000
   H     39.90000000    19.07000000    20.73000000
   N     38.17000000    16.69000000    18.07000000
   C     36.87000000    16.07000000    18.10000000
   C     36.90000000    14.61000000    17.66000000
   O     37.78000000    14.17000000    16.92000000
   C     35.77000000    16.85000000    17.39000000
   H     38.41000000    17.04000000    17.15000000
   H     36.52000000    15.92000000    19.12000000
   H     34.78000000    16.46000000    17.67000000
   H     35.70000000    17.88000000    17.75000000
   H     36.02000000    17.01000000    16.35000000
   N     35.93000000    13.79000000    18.07000000
   C     35.72000000    12.42000000    17.64000000
   C     36.87000000    11.46000000    17.92000000
   O     37.07000000    10.43000000    17.29000000
   C     35.08000000    12.43000000    16.26000000
   C     33.66000000    12.99000000    16.24000000
   C     33.26000000    13.08000000    14.78000000
   O     33.26000000    12.06000000    14.06000000
   O     33.09000000    14.22000000    14.28000000
   H     35.18000000    14.21000000    18.59000000
   H     34.90000000    12.06000000    18.27000000
   H     35.06000000    11.40000000    15.92000000
   H     35.72000000    12.97000000    15.56000000
   H     33.68000000    14.00000000    16.64000000
   H     33.01000000    12.34000000    16.83000000
   N     37.61000000    11.79000000    18.98000000
   C     38.74000000    11.00000000    19.42000000
   H     39.56400000    11.66200000    19.68600000
   H     38.45400000    10.40900000    20.29000000
   H     39.05400000    10.33500000    18.61600000
   H     37.51000000    12.73000000    19.34000000
  Ca     33.09000000    13.08000000    11.63000000
   O     31.61000000    13.75000000     9.48000000
   H     30.68000000    13.56000000     9.35000000
   H     31.93000000    13.97000000     8.60000000
   O     30.54000000    13.45000000    12.38000000
   H     29.76000000    12.93000000    12.19000000
   H     30.29000000    13.99000000    13.13000000
   O     32.73000000    15.64000000    11.60000000
   H     32.91000000    16.36000000    12.20000000
   H     33.07000000    15.94000000    10.75000000

Ca 1.70



