%chk=loop1.cluster83.chk
%nprocshared=48
%mem=10GB
%nosave
#b3lyp/svp scf=(tight,noincore) Test 
#IOP(5/87=12) Density=Current Pop=(MK,readradii) iop(6/33=2) iop(6/42=6)

loop1.cluster83 

   0  1 
   C     42.45000000    44.15000000    53.85000000
   C     41.60000000    43.96000000    52.60000000
   O     40.63000000    44.69000000    52.43000000
   H     43.34200000    44.72400000    53.59900000
   H     41.87400000    44.68600000    54.60400000
   H     42.74400000    43.17600000    54.24100000
   N     42.00000000    43.17000000    51.60000000
   C     41.36000000    43.13000000    50.30000000
   C     41.24000000    41.72000000    49.74000000
   O     41.97000000    40.80000000    50.10000000
   C     42.22000000    43.98000000    49.37000000
   C     41.39000000    44.37000000    48.16000000
   O     40.14000000    44.41000000    48.20000000
   O     42.00000000    44.77000000    47.14000000
   H     42.83000000    42.61000000    51.55000000
   H     40.32000000    43.44000000    50.24000000
   H     43.05000000    43.40000000    48.96000000
   H     42.57000000    44.89000000    49.86000000
   N     40.24000000    41.46000000    48.89000000
   C     39.91000000    40.14000000    48.37000000
   C     41.03000000    39.44000000    47.62000000
   O     41.08000000    38.23000000    47.82000000
   C     38.61000000    40.35000000    47.61000000
   C     37.97000000    38.98000000    47.38000000
   C     36.79000000    38.94000000    46.41000000
   C     37.12000000    39.09000000    44.93000000
   N     35.90000000    39.19000000    44.12000000
   H     39.55000000    42.18000000    48.77000000
   H     39.66000000    39.49000000    49.21000000
   H     38.74000000    40.94000000    46.71000000
   H     37.90000000    40.89000000    48.24000000
   H     37.60000000    38.68000000    48.36000000
   H     38.70000000    38.24000000    47.05000000
   H     36.18000000    39.79000000    46.69000000
   H     36.19000000    38.06000000    46.66000000
   H     37.72000000    38.25000000    44.56000000
   H     37.80000000    39.92000000    44.75000000
   H     35.50000000    38.30000000    43.86000000
   H     35.11000000    39.58000000    44.62000000
   H     36.10000000    39.73000000    43.29000000
   N     41.90000000    40.05000000    46.81000000
   C     42.06000000    41.38000000    46.25000000
   C     43.49000000    41.68000000    45.82000000
   O     44.24000000    40.79000000    45.43000000
   C     41.02000000    41.47000000    45.13000000
   C     40.49000000    42.89000000    45.02000000
   O     39.41000000    43.29000000    45.52000000
   O     41.18000000    43.79000000    44.49000000
   H     42.46000000    39.35000000    46.33000000
   H     41.85000000    42.16000000    46.98000000
   H     40.24000000    40.73000000    45.25000000
   H     41.52000000    41.13000000    44.23000000
   N     43.92000000    42.93000000    45.98000000
   C     45.18000000    43.50000000    45.55000000
   C     45.36000000    45.02000000    45.54000000
   O     46.05000000    45.58000000    46.38000000
   H     43.19000000    43.59000000    46.22000000
   H     45.53000000    43.12000000    44.59000000
   H     45.92000000    43.16000000    46.27000000
   N     44.73000000    45.68000000    44.56000000
   C     44.68000000    47.11000000    44.35000000
   C     45.85000000    47.69000000    43.57000000
   O     46.58000000    47.03000000    42.83000000
   C     43.45000000    47.54000000    43.55000000
   C     42.12000000    47.28000000    44.25000000
   O     42.02000000    47.42000000    45.49000000
   O     41.13000000    46.85000000    43.63000000
   H     44.19000000    45.08000000    43.95000000
   H     44.61000000    47.63000000    45.30000000
   H     43.45000000    46.94000000    42.65000000
   H     43.56000000    48.60000000    43.32000000
   N     46.26000000    48.93000000    43.84000000
   C     45.74000000    50.06000000    44.58000000
   C     45.07000000    51.12000000    43.73000000
   O     44.38000000    52.02000000    44.21000000
   H     47.19000000    49.00000000    43.45000000
   H     46.43000000    50.66000000    45.18000000
   H     44.97000000    49.72000000    45.27000000
   N     45.17000000    51.04000000    42.40000000
   C     44.90000000    52.09000000    41.44000000
   C     45.69000000    53.33000000    41.86000000
   O     45.10000000    54.39000000    42.07000000
   C     43.41000000    52.11000000    41.15000000
   C     42.82000000    50.76000000    40.75000000
   O     43.25000000    53.12000000    40.18000000
   H     45.65000000    50.24000000    42.01000000
   H     45.26000000    51.74000000    40.48000000
   H     42.79000000    52.39000000    42.01000000
   H     43.30000000    54.02000000    40.52000000
   H     43.29000000    50.53000000    39.79000000
   H     43.03000000    49.94000000    41.44000000
   H     41.75000000    50.93000000    40.64000000
   N     47.00000000    53.18000000    42.02000000
   C     47.99000000    54.23000000    42.15000000
   C     48.10000000    55.07000000    40.89000000
   O     49.23000000    55.25000000    40.46000000
   C     47.88000000    55.08000000    43.42000000
   C     47.48000000    54.41000000    44.73000000
   C     49.22000000    55.80000000    43.60000000
   C     48.46000000    53.28000000    45.04000000
   H     47.43000000    52.29000000    41.78000000
   H     48.92000000    53.66000000    42.13000000
   H     47.03000000    55.70000000    43.14000000
   H     46.44000000    54.09000000    44.73000000
   H     47.55000000    55.10000000    45.57000000
   H     49.18000000    56.33000000    44.55000000
   H     50.16000000    55.25000000    43.65000000
   H     49.36000000    56.60000000    42.88000000
   H     49.51000000    53.56000000    45.11000000
   H     48.09000000    52.73000000    45.91000000
   H     48.42000000    52.47000000    44.32000000
   N     47.02000000    55.65000000    40.36000000
   C     46.83000000    56.31000000    39.08000000
   C     46.08000000    57.63000000    39.22000000
   O     45.50000000    57.86000000    40.28000000
   C     46.16000000    55.32000000    38.14000000
   C     44.65000000    55.34000000    38.37000000
   O     46.66000000    54.02000000    38.34000000
   H     46.15000000    55.46000000    40.83000000
   H     47.82000000    56.51000000    38.67000000
   H     46.48000000    55.71000000    37.17000000
   H     47.41000000    54.07000000    37.74000000
   H     44.19000000    54.53000000    37.81000000
   H     44.49000000    55.34000000    39.45000000
   H     44.25000000    56.26000000    37.95000000
   N     46.15000000    58.48000000    38.20000000
   C     45.49000000    59.77000000    38.26000000
   C     44.00000000    59.55000000    38.43000000
   O     43.41000000    58.65000000    37.84000000
   C     45.82000000    60.74000000    37.13000000
   C     47.29000000    61.16000000    36.98000000
   O     45.38000000    60.25000000    35.88000000
   H     46.74000000    58.23000000    37.41000000
   H     45.94000000    60.22000000    39.15000000
   H     45.24000000    61.65000000    37.26000000
   H     45.98000000    59.52000000    35.71000000
   H     47.53000000    61.97000000    37.67000000
   H     47.90000000    60.27000000    37.10000000
   H     47.53000000    61.58000000    36.01000000
   N     43.48000000    60.56000000    39.13000000
   C     42.05000000    60.74000000    39.31000000
   C     41.37000000    59.46000000    39.79000000
   O     40.42000000    58.98000000    39.18000000
   C     41.45000000    61.36000000    38.05000000
   C     40.19000000    62.14000000    38.42000000
   C     39.30000000    62.32000000    37.20000000
   C     37.89000000    62.76000000    37.59000000
   N     37.89000000    64.08000000    38.25000000
   H     44.16000000    61.21000000    39.50000000
   H     41.99000000    61.50000000    40.09000000
   H     41.27000000    60.55000000    37.35000000
   H     42.16000000    62.05000000    37.60000000
   H     40.44000000    63.09000000    38.90000000
   H     39.68000000    61.40000000    39.03000000
   H     39.23000000    61.37000000    36.67000000
   H     39.87000000    63.03000000    36.60000000
   H     37.45000000    62.12000000    38.35000000
   H     37.21000000    62.86000000    36.74000000
   H     38.55000000    64.76000000    37.90000000
   H     36.95000000    64.43000000    38.33000000
   H     38.18000000    63.90000000    39.20000000
   N     41.89000000    58.94000000    40.90000000
   C     41.44000000    57.64000000    41.36000000
   C     42.51000000    56.69000000    41.87000000
   O     42.29000000    55.51000000    41.61000000
   C     40.33000000    57.90000000    42.38000000
   C     39.78000000    56.61000000    42.98000000
   C     38.42000000    56.81000000    43.64000000
   O     37.70000000    55.79000000    43.71000000
   O     38.07000000    57.89000000    44.15000000
   H     42.67000000    59.36000000    41.39000000
   H     41.02000000    57.14000000    40.49000000
   H     39.49000000    58.34000000    41.84000000
   H     40.67000000    58.46000000    43.25000000
   H     40.50000000    56.26000000    43.72000000
   H     39.62000000    55.84000000    42.23000000
   N     43.65000000    57.01000000    42.48000000
   C     44.10000000    58.26000000    43.08000000
   H     45.01900000    58.58600000    42.59300000
   H     43.33100000    59.02200000    42.95200000
   H     44.28800000    58.10700000    44.14300000
   H     44.32000000    56.26000000    42.42000000
  Ca     39.96000000    45.84000000    45.71000000
   O     38.22000000    44.97000000    43.52000000
   H     38.00000000    44.07000000    43.77000000
   H     37.83000000    45.08000000    42.66000000
   O     39.12000000    48.34000000    45.08000000
   H     38.24000000    48.65000000    45.28000000
   H     39.66000000    49.14000000    45.07000000
   O     37.35000000    45.92000000    46.28000000
   H     36.79000000    46.46000000    45.72000000
   H     36.76000000    45.52000000    46.91000000
   O     39.90000000    47.13000000    47.98000000
   H     39.48000000    47.88000000    48.39000000
   H     39.92000000    46.46000000    48.66000000

Ca 1.70



