%chk=loop1.cluster69.chk
%nprocshared=48
%mem=10GB
%nosave
#b3lyp/svp scf=(tight,noincore) Test 
#IOP(5/87=12) Density=Current Pop=(MK,readradii) iop(6/33=2) iop(6/42=6)

loop1.cluster69 

   0  1 
   C     71.07000000    49.63000000    25.12000000
   C     72.28000000    49.55000000    24.19000000
   O     72.67000000    48.46000000    23.78000000
   H     70.20900000    49.16800000    24.63600000
   H     71.29000000    49.10400000    26.04900000
   H     70.84700000    50.67400000    25.33800000
   N     72.92000000    50.67000000    23.83000000
   C     74.08000000    50.68000000    22.97000000
   C     75.34000000    50.09000000    23.61000000
   O     75.94000000    50.83000000    24.39000000
   C     74.41000000    52.04000000    22.37000000
   C     75.61000000    52.13000000    21.43000000
   O     76.12000000    53.25000000    21.21000000
   O     76.14000000    51.11000000    20.93000000
   H     72.52000000    51.53000000    24.17000000
   H     73.79000000    50.00000000    22.17000000
   H     74.54000000    52.82000000    23.12000000
   H     73.47000000    52.29000000    21.89000000
   N     75.71000000    48.86000000    23.26000000
   C     76.77000000    48.14000000    23.95000000
   C     78.15000000    48.17000000    23.31000000
   O     79.14000000    48.26000000    24.04000000
   C     76.24000000    46.77000000    24.38000000
   C     75.25000000    46.89000000    25.53000000
   C     74.64000000    45.50000000    25.76000000
   C     73.81000000    45.40000000    27.03000000
   N     72.61000000    46.26000000    26.99000000
   H     75.03000000    48.31000000    22.76000000
   H     76.93000000    48.58000000    24.93000000
   H     77.09000000    46.24000000    24.79000000
   H     75.82000000    46.24000000    23.52000000
   H     74.42000000    47.54000000    25.26000000
   H     75.80000000    47.17000000    26.43000000
   H     75.52000000    44.90000000    25.99000000
   H     74.22000000    44.93000000    24.94000000
   H     74.38000000    45.64000000    27.94000000
   H     73.57000000    44.35000000    27.16000000
   H     72.18000000    46.20000000    26.09000000
   H     72.03000000    45.98000000    27.77000000
   H     72.83000000    47.20000000    27.29000000
   N     78.23000000    48.23000000    21.98000000
   C     79.44000000    48.48000000    21.23000000
   C     79.74000000    49.97000000    21.27000000
   O     80.84000000    50.36000000    20.88000000
   C     79.52000000    47.80000000    19.86000000
   C     78.28000000    47.95000000    18.98000000
   O     78.21000000    47.16000000    18.02000000
   O     77.49000000    48.87000000    19.28000000
   H     77.40000000    48.09000000    21.42000000
   H     80.29000000    48.03000000    21.74000000
   H     79.71000000    46.73000000    19.99000000
   H     80.37000000    48.16000000    19.28000000
   N     78.87000000    50.80000000    21.86000000
   C     79.03000000    52.23000000    22.01000000
   C     79.42000000    52.92000000    20.71000000
   O     80.52000000    53.46000000    20.57000000
   H     77.97000000    50.48000000    22.19000000
   H     79.87000000    52.43000000    22.66000000
   H     78.11000000    52.65000000    22.44000000
   N     78.61000000    52.78000000    19.65000000
   C     78.84000000    53.28000000    18.32000000
   C     77.92000000    54.46000000    18.03000000
   O     77.93000000    55.03000000    16.94000000
   C     78.79000000    52.23000000    17.21000000
   C     77.38000000    51.66000000    17.26000000
   O     76.46000000    52.16000000    17.94000000
   O     77.16000000    50.58000000    16.69000000
   H     77.72000000    52.34000000    19.83000000
   H     79.81000000    53.77000000    18.42000000
   H     79.49000000    51.44000000    17.48000000
   H     78.98000000    52.69000000    16.24000000
   N     77.06000000    54.79000000    19.00000000
   C     76.11000000    55.87000000    18.84000000
   C     74.74000000    55.52000000    18.28000000
   O     73.96000000    56.45000000    18.13000000
   H     77.02000000    54.27000000    19.86000000
   H     76.50000000    56.60000000    18.13000000
   H     75.93000000    56.38000000    19.78000000
   N     74.39000000    54.24000000    18.07000000
   C     73.04000000    53.81000000    17.77000000
   C     72.66000000    52.49000000    18.42000000
   O     73.51000000    51.77000000    18.93000000
   C     72.93000000    53.70000000    16.25000000
   C     73.12000000    55.00000000    15.47000000
   O     73.81000000    52.76000000    15.67000000
   H     75.02000000    53.47000000    18.24000000
   H     72.30000000    54.54000000    18.09000000
   H     71.92000000    53.38000000    16.02000000
   H     74.67000000    53.20000000    15.71000000
   H     74.10000000    55.45000000    15.66000000
   H     73.11000000    54.71000000    14.42000000
   H     72.30000000    55.66000000    15.73000000
   N     71.34000000    52.26000000    18.52000000
   C     70.71000000    51.07000000    19.05000000
   C     70.10000000    50.29000000    17.90000000
   O     69.27000000    50.82000000    17.17000000
   C     69.67000000    51.42000000    20.11000000
   C     70.23000000    52.32000000    21.21000000
   C     68.96000000    50.15000000    20.59000000
   C     69.13000000    53.03000000    21.99000000
   H     70.77000000    53.06000000    18.27000000
   H     71.43000000    50.39000000    19.51000000
   H     68.90000000    51.93000000    19.54000000
   H     70.79000000    53.09000000    20.67000000
   H     70.90000000    51.72000000    21.84000000
   H     69.63000000    49.55000000    21.20000000
   H     68.15000000    50.43000000    21.26000000
   H     68.51000000    49.62000000    19.74000000
   H     68.53000000    52.35000000    22.59000000
   H     69.59000000    53.77000000    22.64000000
   H     68.34000000    53.51000000    21.41000000
   N     70.49000000    49.02000000    17.74000000
   C     69.86000000    48.07000000    16.84000000
   C     68.67000000    47.37000000    17.47000000
   O     68.47000000    47.37000000    18.68000000
   C     70.94000000    47.06000000    16.45000000
   C     72.16000000    47.64000000    15.75000000
   O     71.39000000    46.25000000    17.50000000
   H     71.20000000    48.71000000    18.38000000
   H     69.48000000    48.61000000    15.97000000
   H     70.44000000    46.36000000    15.77000000
   H     72.32000000    46.22000000    17.26000000
   H     72.86000000    46.83000000    15.56000000
   H     71.94000000    48.17000000    14.82000000
   H     72.57000000    48.38000000    16.45000000
   N     67.92000000    46.60000000    16.67000000
   C     66.93000000    45.63000000    17.08000000
   C     67.45000000    44.54000000    18.01000000
   O     66.71000000    44.06000000    18.86000000
   C     66.24000000    44.91000000    15.92000000
   C     65.62000000    45.93000000    14.97000000
   O     67.20000000    44.17000000    15.19000000
   H     68.10000000    46.68000000    15.68000000
   H     66.08000000    46.05000000    17.62000000
   H     65.42000000    44.29000000    16.28000000
   H     66.72000000    43.95000000    14.39000000
   H     64.77000000    46.31000000    15.53000000
   H     66.41000000    46.61000000    14.63000000
   H     65.17000000    45.44000000    14.10000000
   N     68.72000000    44.13000000    17.88000000
   C     69.37000000    43.11000000    18.68000000
   C     69.66000000    43.70000000    20.05000000
   O     69.23000000    43.12000000    21.05000000
   C     70.65000000    42.62000000    18.02000000
   C     71.42000000    41.63000000    18.90000000
   C     72.66000000    41.13000000    18.16000000
   C     73.45000000    40.24000000    19.12000000
   N     74.72000000    39.66000000    18.64000000
   H     69.21000000    44.60000000    17.14000000
   H     68.81000000    42.19000000    18.83000000
   H     71.28000000    43.48000000    17.80000000
   H     70.46000000    42.15000000    17.05000000
   H     70.77000000    40.77000000    19.08000000
   H     71.61000000    42.14000000    19.84000000
   H     73.29000000    41.95000000    17.83000000
   H     72.40000000    40.54000000    17.29000000
   H     72.82000000    39.47000000    19.56000000
   H     73.80000000    40.88000000    19.93000000
   H     75.24000000    40.36000000    18.13000000
   H     75.23000000    39.40000000    19.47000000
   H     74.58000000    38.83000000    18.08000000
   N     70.33000000    44.85000000    20.10000000
   C     70.54000000    45.69000000    21.26000000
   C     69.28000000    46.06000000    22.02000000
   O     69.32000000    46.07000000    23.25000000
   C     71.30000000    46.99000000    21.01000000
   C     72.80000000    46.73000000    20.84000000
   C     73.61000000    47.90000000    20.31000000
   O     73.13000000    48.76000000    19.55000000
   O     74.84000000    47.88000000    20.51000000
   H     70.51000000    45.26000000    19.20000000
   H     71.03000000    44.99000000    21.93000000
   H     71.22000000    47.63000000    21.89000000
   H     70.92000000    47.51000000    20.13000000
   H     72.82000000    45.87000000    20.17000000
   H     73.15000000    46.42000000    21.83000000
   N     68.17000000    46.39000000    21.35000000
   C     66.91000000    46.56000000    22.05000000
   H     66.12700000    46.01300000    21.52500000
   H     67.00300000    46.17500000    23.06600000
   H     66.65300000    47.61900000    22.08400000
   H     68.20000000    46.52000000    20.35000000
  Ca     75.33000000    49.95000000    18.85000000
   O     75.75000000    47.66000000    17.14000000
   H     75.88000000    48.11000000    16.31000000
   H     76.62000000    47.34000000    17.39000000
   O     74.39000000    50.16000000    16.29000000
   H     74.66000000    49.72000000    15.49000000
   H     74.24000000    51.07000000    16.03000000

Ca 1.70



