%chk=loop3.cluster148.chk
%nprocshared=48
%mem=10GB
%nosave
#b3lyp/svp scf=(tight,noincore) Test 
#IOP(5/87=12) Density=Current Pop=(MK,readradii) iop(6/33=2) iop(6/42=6)

loop3.cluster148 

   0  1 
   C     53.18000000    54.75000000    46.81000000
   C     53.36000000    53.91000000    48.06000000
   O     52.39000000    53.65000000    48.77000000
   H     52.47900000    55.55900000    47.01500000
   H     54.14100000    55.16900000    46.51200000
   H     52.78900000    54.12700000    46.00600000
   N     54.60000000    53.50000000    48.33000000
   C     55.07000000    52.88000000    49.56000000
   C     54.90000000    53.72000000    50.81000000
   O     55.78000000    53.65000000    51.67000000
   C     54.43000000    51.50000000    49.71000000
   C     55.02000000    50.44000000    48.79000000
   O     54.68000000    50.35000000    47.58000000
   O     55.88000000    49.66000000    49.24000000
   H     55.36000000    53.57000000    47.67000000
   H     56.15000000    52.72000000    49.53000000
   H     53.36000000    51.48000000    49.52000000
   H     54.53000000    51.13000000    50.73000000
   N     53.77000000    54.39000000    51.05000000
   C     53.57000000    55.40000000    52.06000000
   C     53.47000000    54.85000000    53.47000000
   O     53.79000000    55.61000000    54.39000000
   C     52.39000000    56.34000000    51.81000000
   C     51.01000000    55.70000000    51.71000000
   C     49.83000000    56.67000000    51.60000000
   C     48.53000000    55.89000000    51.53000000
   N     48.20000000    55.50000000    52.91000000
   H     53.08000000    54.13000000    50.35000000
   H     54.44000000    56.06000000    52.05000000
   H     52.56000000    56.89000000    50.89000000
   H     52.42000000    57.07000000    52.62000000
   H     50.84000000    55.07000000    52.58000000
   H     50.96000000    55.08000000    50.82000000
   H     49.89000000    57.23000000    50.67000000
   H     49.77000000    57.45000000    52.36000000
   H     48.55000000    54.98000000    50.93000000
   H     47.68000000    56.43000000    51.10000000
   H     48.93000000    54.87000000    53.21000000
   H     48.15000000    56.25000000    53.58000000
   H     47.30000000    55.03000000    52.90000000
   N     53.10000000    53.58000000    53.61000000
   C     53.33000000    52.89000000    54.86000000
   C     54.16000000    51.65000000    54.56000000
   O     53.83000000    51.02000000    53.56000000
   C     52.07000000    52.66000000    55.70000000
   C     50.75000000    52.69000000    54.93000000
   O     50.28000000    51.61000000    54.51000000
   O     50.20000000    53.77000000    54.65000000
   H     52.94000000    53.07000000    52.75000000
   H     53.96000000    53.56000000    55.44000000
   H     52.01000000    53.42000000    56.47000000
   H     52.13000000    51.64000000    56.08000000
   N     55.11000000    51.31000000    55.43000000
   C     56.33000000    50.59000000    55.12000000
   C     56.27000000    49.11000000    54.76000000
   O     57.27000000    48.53000000    54.35000000
   H     55.06000000    51.72000000    56.35000000
   H     57.04000000    50.60000000    55.94000000
   H     56.72000000    51.00000000    54.19000000
   N     55.14000000    48.44000000    55.01000000
   C     54.92000000    47.02000000    54.84000000
   C     54.59000000    46.62000000    53.41000000
   O     54.76000000    45.49000000    52.93000000
   C     53.97000000    46.46000000    55.89000000
   C     52.57000000    46.05000000    55.47000000
   N     52.15000000    44.79000000    55.62000000
   O     51.81000000    46.84000000    54.90000000
   H     54.34000000    48.95000000    55.35000000
   H     55.87000000    46.50000000    55.01000000
   H     53.92000000    47.08000000    56.79000000
   H     54.41000000    45.51000000    56.19000000
   H     52.76000000    44.03000000    55.85000000
   H     51.17000000    44.66000000    55.38000000
   N     54.12000000    47.58000000    52.61000000
   C     53.61000000    47.37000000    51.27000000
   C     52.25000000    46.70000000    51.17000000
   O     51.42000000    46.97000000    50.30000000
   H     54.18000000    48.54000000    52.94000000
   H     54.29000000    46.77000000    50.67000000
   H     53.59000000    48.39000000    50.88000000
   N     51.94000000    45.82000000    52.12000000
   C     50.89000000    44.83000000    52.22000000
   C     49.50000000    45.42000000    52.43000000
   O     48.48000000    44.73000000    52.42000000
   C     51.03000000    43.84000000    51.07000000
   C     52.42000000    43.36000000    50.74000000
   C     52.96000000    42.23000000    51.36000000
   C     53.19000000    44.09000000    49.82000000
   C     54.29000000    41.90000000    51.06000000
   C     54.54000000    43.81000000    49.60000000
   C     55.09000000    42.66000000    50.19000000
   O     56.40000000    42.33000000    50.01000000
   H     52.76000000    45.65000000    52.69000000
   H     50.95000000    44.22000000    53.12000000
   H     50.70000000    44.37000000    50.18000000
   H     50.45000000    42.93000000    51.19000000
   H     52.39000000    41.71000000    52.12000000
   H     52.81000000    44.99000000    49.36000000
   H     54.58000000    40.94000000    51.46000000
   H     55.05000000    44.50000000    48.94000000
   H     56.95000000    42.87000000    49.44000000
   N     49.57000000    46.71000000    52.73000000
   C     48.57000000    47.76000000    52.82000000
   C     47.51000000    47.58000000    53.90000000
   O     47.12000000    48.56000000    54.51000000
   C     48.00000000    48.00000000    51.42000000
   C     47.55000000    49.46000000    51.36000000
   C     46.89000000    47.02000000    51.05000000
   C     47.39000000    49.98000000    49.94000000
   H     50.49000000    47.09000000    52.90000000
   H     49.19000000    48.63000000    53.03000000
   H     48.84000000    47.96000000    50.73000000
   H     48.30000000    50.15000000    51.75000000
   H     46.62000000    49.52000000    51.92000000
   H     47.18000000    45.97000000    51.05000000
   H     45.98000000    47.17000000    51.62000000
   H     46.54000000    47.14000000    50.02000000
   H     47.89000000    49.33000000    49.23000000
   H     46.32000000    49.97000000    49.72000000
   H     47.88000000    50.96000000    49.89000000
   N     47.10000000    46.32000000    54.10000000
   C     46.16000000    45.88000000    55.11000000
   C     44.71000000    45.85000000    54.63000000
   O     43.83000000    46.36000000    55.32000000
   C     46.66000000    44.62000000    55.80000000
   O     46.86000000    43.56000000    54.89000000
   H     47.60000000    45.61000000    53.59000000
   H     46.23000000    46.68000000    55.85000000
   H     45.97000000    44.37000000    56.61000000
   H     47.54000000    44.91000000    56.38000000
   H     46.27000000    42.88000000    55.22000000
   N     44.38000000    45.29000000    53.47000000
   C     43.01000000    45.06000000    53.05000000
   C     42.11000000    46.28000000    52.99000000
   O     40.94000000    46.24000000    53.37000000
   C     42.43000000    43.88000000    53.83000000
   H     45.08000000    44.79000000    52.94000000
   H     43.10000000    44.73000000    52.01000000
   H     43.10000000    43.03000000    53.66000000
   H     42.41000000    44.18000000    54.87000000
   H     41.49000000    43.66000000    53.34000000
   N     42.72000000    47.38000000    52.53000000
   C     42.26000000    48.74000000    52.69000000
   C     42.83000000    49.65000000    51.61000000
   O     43.72000000    49.34000000    50.83000000
   C     42.84000000    49.31000000    53.98000000
   H     43.60000000    47.30000000    52.04000000
   H     41.17000000    48.79000000    52.74000000
   H     42.48000000    48.72000000    54.83000000
   H     43.92000000    49.26000000    53.90000000
   H     42.46000000    50.32000000    54.16000000
   N     42.21000000    50.83000000    51.54000000
   C     42.71000000    52.09000000    51.04000000
   C     43.11000000    52.23000000    49.58000000
   O     43.37000000    53.36000000    49.16000000
   C     43.72000000    52.72000000    51.99000000
   C     45.07000000    52.04000000    52.17000000
   C     45.86000000    52.72000000    53.28000000
   O     45.89000000    53.96000000    53.43000000
   O     46.66000000    52.05000000    53.98000000
   H     41.45000000    50.89000000    52.21000000
   H     41.86000000    52.77000000    51.00000000
   H     43.19000000    52.87000000    52.94000000
   H     43.97000000    53.72000000    51.63000000
   H     45.56000000    52.30000000    51.23000000
   H     44.98000000    50.96000000    52.32000000
   N     43.20000000    51.20000000    48.73000000
   C     43.71000000    51.19000000    47.38000000
   H     44.73400000    50.81600000    47.38200000
   H     43.08800000    50.54300000    46.76100000
   H     43.69500000    52.20300000    46.97800000
   H     42.92000000    50.29000000    49.07000000
  Ca     47.83000000    50.76000000    55.87000000
   O     45.30000000    51.25000000    56.70000000
   H     44.89000000    50.57000000    57.23000000
   H     44.60000000    51.89000000    56.54000000
   O     49.81000000    50.95000000    57.78000000
   H     50.56000000    50.36000000    57.76000000
   H     50.08000000    51.65000000    58.38000000
   O     49.88000000    48.91000000    55.83000000
   H     50.66000000    49.00000000    55.28000000
   H     49.94000000    48.02000000    56.18000000
   O     48.19000000    53.38000000    56.61000000
   H     48.93000000    53.61000000    56.06000000
   H     47.49000000    53.97000000    56.33000000
   O     47.18000000    49.04000000    57.96000000
   H     47.29000000    48.85000000    58.90000000
   H     46.42000000    48.51000000    57.71000000

Ca 1.70



