%chk=loop3.cluster38.chk
%nprocshared=48
%mem=10GB
%nosave
#b3lyp/svp scf=(tight,noincore) Test 
#IOP(5/87=12) Density=Current Pop=(MK,readradii) iop(6/33=2) iop(6/42=6)

loop3.cluster38 

   0  1 
   C     61.14000000    45.94000000    40.02000000
   C     60.30000000    45.44000000    41.19000000
   O     60.59000000    44.36000000    41.70000000
   H     62.12300000    45.47000000    40.05200000
   H     60.64600000    45.68500000    39.08200000
   H     61.25300000    47.02200000    40.08900000
   N     59.28000000    46.18000000    41.63000000
   C     58.47000000    45.82000000    42.77000000
   C     57.39000000    44.87000000    42.26000000
   O     56.54000000    45.31000000    41.48000000
   C     57.84000000    47.04000000    43.43000000
   C     56.97000000    46.77000000    44.65000000
   O     56.25000000    47.73000000    45.01000000
   O     57.08000000    45.68000000    45.25000000
   H     58.86000000    46.92000000    41.09000000
   H     59.07000000    45.40000000    43.58000000
   H     57.33000000    47.66000000    42.69000000
   H     58.75000000    47.52000000    43.79000000
   N     57.37000000    43.61000000    42.69000000
   C     56.71000000    42.51000000    42.01000000
   C     55.41000000    42.19000000    42.73000000
   O     54.36000000    42.15000000    42.09000000
   C     57.52000000    41.22000000    41.97000000
   C     58.90000000    41.34000000    41.34000000
   C     58.96000000    41.67000000    39.85000000
   C     60.27000000    41.16000000    39.27000000
   N     60.39000000    41.41000000    37.83000000
   H     58.07000000    43.27000000    43.33000000
   H     56.44000000    42.81000000    40.99000000
   H     57.01000000    40.41000000    41.46000000
   H     57.76000000    40.92000000    43.00000000
   H     59.40000000    40.37000000    41.41000000
   H     59.42000000    42.10000000    41.92000000
   H     58.74000000    42.72000000    39.67000000
   H     58.23000000    40.99000000    39.41000000
   H     60.34000000    40.08000000    39.38000000
   H     60.97000000    41.73000000    39.88000000
   H     61.31000000    41.07000000    37.58000000
   H     59.70000000    40.87000000    37.33000000
   H     60.27000000    42.41000000    37.71000000
   N     55.50000000    42.02000000    44.05000000
   C     54.39000000    41.94000000    44.98000000
   C     53.66000000    43.25000000    45.21000000
   O     52.61000000    43.24000000    45.84000000
   C     54.77000000    41.36000000    46.34000000
   C     55.93000000    42.04000000    47.05000000
   O     56.58000000    41.51000000    47.97000000
   O     56.27000000    43.16000000    46.59000000
   H     56.45000000    41.97000000    44.38000000
   H     53.71000000    41.25000000    44.47000000
   H     55.07000000    40.33000000    46.14000000
   H     53.88000000    41.28000000    46.96000000
   N     54.15000000    44.35000000    44.61000000
   C     53.62000000    45.70000000    44.58000000
   C     53.45000000    46.37000000    45.93000000
   O     52.56000000    47.21000000    46.06000000
   H     54.96000000    44.23000000    44.02000000
   H     52.64000000    45.68000000    44.12000000
   H     54.38000000    46.24000000    44.01000000
   N     54.22000000    46.02000000    46.97000000
   C     54.02000000    46.47000000    48.33000000
   C     54.77000000    47.77000000    48.59000000
   O     55.00000000    48.14000000    49.74000000
   C     54.32000000    45.33000000    49.29000000
   C     55.78000000    44.88000000    49.27000000
   N     56.20000000    43.93000000    50.11000000
   O     56.61000000    45.38000000    48.52000000
   H     54.92000000    45.33000000    46.76000000
   H     52.97000000    46.71000000    48.51000000
   H     53.68000000    44.53000000    48.92000000
   H     54.01000000    45.60000000    50.29000000
   H     55.43000000    43.51000000    50.60000000
   H     57.15000000    43.93000000    50.46000000
   N     55.38000000    48.44000000    47.61000000
   C     55.84000000    49.82000000    47.66000000
   C     57.35000000    49.99000000    47.67000000
   O     57.83000000    51.13000000    47.63000000
   H     55.44000000    47.98000000    46.71000000
   H     55.56000000    50.29000000    48.60000000
   H     55.57000000    50.44000000    46.81000000
   N     58.14000000    48.92000000    47.77000000
   C     59.58000000    49.01000000    47.89000000
   C     60.20000000    47.75000000    47.30000000
   O     59.58000000    46.69000000    47.30000000
   C     59.97000000    49.13000000    49.36000000
   C     59.59000000    47.99000000    50.27000000
   C     58.43000000    47.94000000    51.07000000
   C     60.59000000    47.05000000    50.56000000
   C     58.22000000    46.93000000    52.01000000
   C     60.41000000    46.03000000    51.50000000
   C     59.21000000    45.94000000    52.23000000
   O     59.14000000    45.00000000    53.21000000
   H     57.73000000    48.00000000    47.85000000
   H     59.98000000    49.89000000    47.39000000
   H     59.56000000    50.05000000    49.78000000
   H     61.04000000    49.31000000    49.48000000
   H     57.71000000    48.71000000    50.85000000
   H     61.51000000    47.12000000    50.00000000
   H     57.34000000    46.88000000    52.64000000
   H     61.18000000    45.27000000    51.61000000
   H     59.94000000    44.47000000    53.23000000
   N     61.45000000    47.86000000    46.86000000
   C     62.29000000    46.90000000    46.19000000
   C     63.15000000    46.31000000    47.30000000
   O     63.82000000    47.00000000    48.07000000
   C     62.97000000    47.61000000    45.01000000
   C     61.97000000    48.33000000    44.11000000
   C     63.68000000    46.58000000    44.14000000
   C     62.83000000    49.20000000    43.20000000
   H     61.83000000    48.80000000    46.95000000
   H     61.61000000    46.17000000    45.74000000
   H     63.71000000    48.28000000    45.42000000
   H     61.28000000    48.96000000    44.68000000
   H     61.43000000    47.63000000    43.49000000
   H     62.96000000    45.88000000    43.72000000
   H     64.38000000    47.00000000    43.41000000
   H     64.32000000    45.94000000    44.75000000
   H     63.32000000    50.05000000    43.69000000
   H     63.67000000    48.68000000    42.76000000
   H     62.27000000    49.61000000    42.36000000
   N     63.22000000    44.98000000    47.25000000
   C     63.98000000    44.08000000    48.09000000
   C     65.10000000    43.37000000    47.35000000
   O     65.16000000    43.23000000    46.14000000
   C     63.02000000    43.05000000    48.69000000
   O     62.40000000    42.34000000    47.65000000
   H     62.71000000    44.55000000    46.49000000
   H     64.33000000    44.61000000    48.98000000
   H     62.31000000    43.55000000    49.35000000
   H     63.42000000    42.35000000    49.42000000
   H     61.92000000    41.60000000    48.04000000
   N     66.05000000    42.88000000    48.16000000
   C     67.21000000    42.23000000    47.59000000
   C     66.88000000    41.04000000    46.71000000
   O     67.58000000    40.91000000    45.70000000
   C     68.28000000    41.84000000    48.61000000
   H     65.92000000    43.07000000    49.14000000
   H     67.68000000    42.96000000    46.93000000
   H     68.19000000    42.49000000    49.48000000
   H     68.17000000    40.79000000    48.88000000
   H     69.29000000    41.98000000    48.22000000
   N     65.88000000    40.24000000    47.09000000
   C     65.36000000    39.20000000    46.22000000
   C     64.78000000    39.76000000    44.93000000
   O     64.88000000    39.04000000    43.94000000
   C     64.31000000    38.38000000    46.97000000
   H     65.46000000    40.37000000    47.99000000
   H     66.26000000    38.70000000    45.85000000
   H     63.36000000    38.89000000    47.10000000
   H     63.94000000    37.56000000    46.36000000
   H     64.62000000    37.99000000    47.93000000
   N     64.22000000    40.97000000    44.84000000
   C     63.66000000    41.44000000    43.59000000
   C     64.82000000    41.91000000    42.72000000
   O     64.83000000    41.63000000    41.53000000
   C     62.75000000    42.63000000    43.87000000
   C     61.40000000    42.17000000    44.40000000
   C     60.42000000    43.12000000    45.07000000
   O     59.19000000    42.99000000    44.85000000
   O     60.69000000    44.02000000    45.90000000
   H     64.26000000    41.64000000    45.60000000
   H     63.04000000    40.62000000    43.21000000
   H     62.54000000    43.10000000    42.91000000
   H     63.19000000    43.38000000    44.53000000
   H     61.49000000    41.28000000    45.02000000
   H     60.79000000    41.85000000    43.56000000
   N     65.86000000    42.53000000    43.28000000
   C     66.97000000    42.94000000    42.44000000
   H     67.85000000    42.34500000    42.68500000
   H     66.70900000    42.78800000    41.39300000
   H     67.18600000    43.99400000    42.61200000
   H     65.87000000    42.79000000    44.26000000
  Ca     58.38000000    44.45000000    46.92000000
   O     59.26000000    44.50000000    49.26000000
   H     59.62000000    45.27000000    49.71000000
   H     59.62000000    43.75000000    49.75000000
   O     59.12000000    41.83000000    47.76000000
   H     58.24000000    41.53000000    47.99000000
   H     59.70000000    41.26000000    48.26000000

Ca 1.70



