%chk=loop3.cluster120.chk
%nprocshared=48
%mem=10GB
%nosave
#b3lyp/svp scf=(tight,noincore) Test 
#IOP(5/87=12) Density=Current Pop=(MK,readradii) iop(6/33=2) iop(6/42=6)

loop3.cluster120 

   0  1 
   C     92.18000000    69.46000000    22.83000000
   C     93.60000000    68.99000000    22.53000000
   O     93.90000000    67.80000000    22.57000000
   H     91.50100000    68.60800000    22.79800000
   H     92.14800000    69.91200000    23.82100000
   H     91.87500000    70.19400000    22.08500000
   N     94.50000000    69.92000000    22.21000000
   C     95.88000000    69.61000000    21.94000000
   C     96.58000000    69.65000000    23.29000000
   O     96.70000000    68.67000000    24.01000000
   C     96.50000000    70.43000000    20.81000000
   C     96.14000000    71.90000000    20.78000000
   O     95.86000000    72.40000000    19.67000000
   O     95.79000000    72.59000000    21.77000000
   H     94.20000000    70.89000000    22.19000000
   H     95.90000000    68.57000000    21.59000000
   H     96.23000000    70.04000000    19.83000000
   H     97.59000000    70.31000000    20.81000000
   N     97.01000000    70.86000000    23.68000000
   C     97.80000000    71.11000000    24.86000000
   C     99.15000000    70.41000000    24.79000000
   O     99.99000000    70.75000000    23.96000000
   C     98.18000000    72.58000000    25.03000000
   C     98.82000000    72.88000000    26.38000000
   C     99.07000000    74.36000000    26.62000000
   C     99.37000000    74.60000000    28.10000000
   N     99.73000000    76.00000000    28.34000000
   H     96.81000000    71.57000000    22.99000000
   H     97.31000000    70.61000000    25.70000000
   H     97.25000000    73.15000000    25.07000000
   H     98.67000000    72.96000000    24.13000000
   H     99.80000000    72.42000000    26.48000000
   H     98.15000000    72.47000000    27.14000000
   H     98.14000000    74.90000000    26.47000000
   H     99.92000000    74.70000000    26.03000000
   H    100.20000000    73.96000000    28.39000000
   H     98.45000000    74.28000000    28.59000000
   H    100.54000000    76.33000000    27.84000000
   H     99.06000000    76.66000000    27.97000000
   H     99.72000000    76.22000000    29.33000000
   N     99.31000000    69.39000000    25.63000000
   C    100.55000000    68.64000000    25.70000000
   C    100.70000000    67.62000000    24.58000000
   O    101.78000000    67.09000000    24.34000000
   C    100.78000000    67.94000000    27.03000000
   C     99.72000000    66.89000000    27.34000000
   O     99.88000000    65.72000000    26.91000000
   O     98.61000000    67.24000000    27.80000000
   H     98.55000000    69.16000000    26.25000000
   H    101.43000000    69.30000000    25.68000000
   H    100.75000000    68.69000000    27.82000000
   H    101.74000000    67.43000000    27.09000000
   N     99.64000000    67.23000000    23.87000000
   C     99.72000000    66.37000000    22.70000000
   C     98.55000000    66.21000000    21.74000000
   O     97.52000000    66.73000000    22.16000000
   H     98.73000000    67.53000000    24.18000000
   H     99.89000000    65.39000000    23.14000000
   H    100.53000000    66.72000000    22.06000000
   N     98.69000000    65.54000000    20.59000000
   C     99.87000000    64.99000000    19.97000000
   C     99.49000000    63.88000000    19.00000000
   O     98.77000000    64.22000000    18.06000000
   C    100.56000000    66.01000000    19.06000000
   C    101.77000000    65.40000000    18.36000000
   N    101.86000000    65.64000000    17.05000000
   O    102.52000000    64.67000000    19.00000000
   H     97.81000000    65.41000000    20.10000000
   H    100.57000000    64.50000000    20.65000000
   H    100.98000000    66.79000000    19.69000000
   H     99.94000000    66.52000000    18.32000000
   H    101.19000000    66.22000000    16.56000000
   H    102.55000000    65.13000000    16.53000000
   N    100.07000000    62.69000000    19.08000000
   C    100.73000000    62.02000000    20.19000000
   C     99.84000000    61.87000000    21.41000000
   O     99.23000000    62.86000000    21.82000000
   H    100.04000000    62.11000000    18.25000000
   H    101.65000000    62.58000000    20.37000000
   H    100.90000000    60.99000000    19.88000000
   N     99.70000000    60.64000000    21.90000000
   C     98.82000000    60.15000000    22.95000000
   C     99.61000000    59.22000000    23.85000000
   O    100.27000000    58.31000000    23.34000000
   C     97.64000000    59.40000000    22.35000000
   C     96.64000000    60.32000000    21.69000000
   C     95.55000000    60.82000000    22.42000000
   C     96.56000000    60.30000000    20.29000000
   C     94.48000000    61.37000000    21.72000000
   C     95.51000000    60.89000000    19.60000000
   C     94.40000000    61.41000000    20.31000000
   O     93.28000000    61.85000000    19.69000000
   H    100.06000000    59.92000000    21.29000000
   H     98.35000000    60.98000000    23.49000000
   H     97.17000000    58.84000000    23.16000000
   H     98.01000000    58.61000000    21.69000000
   H     95.62000000    60.91000000    23.49000000
   H     97.37000000    59.93000000    19.68000000
   H     93.59000000    61.63000000    22.28000000
   H     95.47000000    60.85000000    18.52000000
   H     93.42000000    61.80000000    18.74000000
   N     99.45000000    59.30000000    25.17000000
   C    100.03000000    58.48000000    26.21000000
   C     99.32000000    57.15000000    26.42000000
   O     99.66000000    56.39000000    27.32000000
   C    100.10000000    59.30000000    27.50000000
   C     98.78000000    59.28000000    28.26000000
   C    101.32000000    58.85000000    28.29000000
   C     98.58000000    60.46000000    29.21000000
   H     98.93000000    60.07000000    25.56000000
   H    101.03000000    58.22000000    25.84000000
   H    100.33000000    60.32000000    27.19000000
   H     98.76000000    58.34000000    28.81000000
   H     98.02000000    59.31000000    27.47000000
   H    102.17000000    58.91000000    27.60000000
   H    101.47000000    59.55000000    29.11000000
   H    101.18000000    57.82000000    28.62000000
   H     98.19000000    61.29000000    28.62000000
   H     97.86000000    60.15000000    29.97000000
   H     99.55000000    60.68000000    29.66000000
   N     98.28000000    56.83000000    25.65000000
   C     97.55000000    55.59000000    25.81000000
   C     96.57000000    55.58000000    26.98000000
   O     96.07000000    54.55000000    27.42000000
   C     96.83000000    55.33000000    24.49000000
   O     97.84000000    55.08000000    23.53000000
   H     98.04000000    57.41000000    24.86000000
   H     98.35000000    54.88000000    26.00000000
   H     96.26000000    56.22000000    24.27000000
   H     96.14000000    54.50000000    24.65000000
   H     97.42000000    54.69000000    22.76000000
   N     96.27000000    56.77000000    27.52000000
   C     95.25000000    57.02000000    28.52000000
   C     94.85000000    58.48000000    28.66000000
   O     95.44000000    59.34000000    27.99000000
   C     95.94000000    56.57000000    29.80000000
   H     96.62000000    57.59000000    27.06000000
   H     94.31000000    56.50000000    28.35000000
   H     96.78000000    57.24000000    29.99000000
   H     95.31000000    56.77000000    30.67000000
   H     96.29000000    55.55000000    29.69000000
   N     93.78000000    58.72000000    29.42000000
   C     93.31000000    60.01000000    29.88000000
   C     93.13000000    61.21000000    28.96000000
   O     93.22000000    62.35000000    29.40000000
   C     94.11000000    60.34000000    31.13000000
   H     93.31000000    57.94000000    29.87000000
   H     92.29000000    59.80000000    30.19000000
   H     93.65000000    61.18000000    31.65000000
   H     94.13000000    59.40000000    31.69000000
   H     95.18000000    60.39000000    30.93000000
   N     92.95000000    61.04000000    27.64000000
   C     92.78000000    62.07000000    26.64000000
   C     91.44000000    62.01000000    25.93000000
   O     91.00000000    62.95000000    25.27000000
   C     93.89000000    61.85000000    25.61000000
   C     95.20000000    62.47000000    26.10000000
   C     95.16000000    63.97000000    26.38000000
   O     94.31000000    64.57000000    25.69000000
   O     95.78000000    64.56000000    27.29000000
   H     92.91000000    60.08000000    27.33000000
   H     92.77000000    63.08000000    27.05000000
   H     93.60000000    62.44000000    24.74000000
   H     93.98000000    60.84000000    25.21000000
   H     95.94000000    62.16000000    25.36000000
   H     95.51000000    61.96000000    27.01000000
   N     90.65000000    60.94000000    26.09000000
   C     89.55000000    60.58000000    25.23000000
   H     88.73000000    61.28300000    25.37700000
   H     89.87500000    60.61400000    24.19000000
   H     89.21200000    59.57300000    25.47300000
   H     91.15000000    60.20000000    26.57000000
  Ca     95.35000000    65.92000000    23.69000000
   O     97.30000000    66.03000000    25.77000000
   H     96.65000000    65.77000000    26.42000000
   H     98.08000000    66.26000000    26.28000000
   O     92.91000000    64.99000000    23.45000000
   H     92.20000000    65.04000000    24.09000000
   H     92.47000000    64.78000000    22.63000000
   O     97.10000000    63.88000000    23.36000000
   H     97.59000000    63.79000000    24.17000000
   H     97.58000000    63.33000000    22.73000000
   O     94.54000000    67.49000000    25.86000000
   H     94.14000000    67.14000000    26.66000000
   H     95.30000000    67.99000000    26.17000000
   O     95.09000000    65.30000000    21.07000000
   H     94.42000000    64.72000000    20.70000000
   H     95.67000000    65.47000000    20.33000000

Ca 1.70



