%chk=loop3.cluster119.chk
%nprocshared=48
%mem=10GB
%nosave
#b3lyp/svp scf=(tight,noincore) Test 
#IOP(5/87=12) Density=Current Pop=(MK,readradii) iop(6/33=2) iop(6/42=6)

loop3.cluster119 

   0  1 
   C     91.67000000    74.96000000    23.05000000
   C     93.16000000    74.63000000    22.94000000
   O     93.68000000    73.61000000    23.36000000
   H     91.10500000    74.04000000    23.19800000
   H     91.50600000    75.62600000    23.89700000
   H     91.33700000    75.44700000    22.13400000
   N     93.98000000    75.56000000    22.44000000
   C     95.39000000    75.35000000    22.18000000
   C     96.25000000    75.09000000    23.41000000
   O     96.77000000    73.98000000    23.52000000
   C     96.08000000    76.40000000    21.32000000
   C     95.65000000    77.86000000    21.28000000
   O     96.52000000    78.75000000    21.33000000
   O     94.43000000    78.10000000    21.46000000
   H     93.64000000    76.46000000    22.13000000
   H     95.44000000    74.38000000    21.69000000
   H     95.99000000    76.06000000    20.28000000
   H     97.16000000    76.30000000    21.46000000
   N     96.43000000    75.98000000    24.39000000
   C     97.47000000    76.00000000    25.39000000
   C     98.84000000    75.97000000    24.73000000
   O     99.25000000    76.84000000    23.95000000
   C     97.27000000    77.23000000    26.27000000
   C     98.16000000    77.19000000    27.51000000
   C     97.92000000    78.35000000    28.48000000
   C     96.50000000    78.34000000    29.04000000
   N     96.32000000    79.68000000    29.63000000
   H     95.85000000    76.81000000    24.27000000
   H     97.45000000    75.13000000    26.04000000
   H     96.22000000    77.22000000    26.57000000
   H     97.49000000    78.17000000    25.76000000
   H     99.19000000    77.33000000    27.21000000
   H     97.87000000    76.26000000    28.01000000
   H     98.11000000    79.25000000    27.90000000
   H     98.65000000    78.29000000    29.28000000
   H     96.39000000    77.46000000    29.67000000
   H     95.76000000    78.22000000    28.24000000
   H     97.20000000    80.08000000    29.93000000
   H     96.06000000    80.32000000    28.89000000
   H     95.54000000    79.70000000    30.27000000
   N     99.57000000    74.87000000    24.93000000
   C    100.96000000    74.70000000    24.55000000
   C    101.21000000    73.60000000    23.53000000
   O    102.33000000    73.15000000    23.29000000
   C    101.97000000    74.59000000    25.69000000
   C    101.67000000    73.39000000    26.57000000
   O    101.07000000    72.41000000    26.07000000
   O    102.19000000    73.34000000    27.71000000
   H     99.11000000    74.15000000    25.46000000
   H    101.22000000    75.57000000    23.95000000
   H    101.91000000    75.49000000    26.31000000
   H    102.98000000    74.48000000    25.30000000
   N    100.16000000    72.99000000    22.97000000
   C    100.37000000    72.04000000    21.90000000
   C     99.18000000    72.04000000    20.96000000
   O     98.17000000    72.70000000    21.18000000
   H     99.27000000    73.44000000    23.13000000
   H    100.45000000    71.01000000    22.25000000
   H    101.34000000    72.25000000    21.44000000
   N     99.16000000    71.31000000    19.84000000
   C    100.25000000    70.50000000    19.34000000
   C     99.69000000    69.31000000    18.58000000
   O     99.08000000    69.51000000    17.53000000
   C    101.10000000    71.46000000    18.51000000
   C    102.37000000    70.79000000    18.02000000
   N    103.04000000    71.38000000    17.02000000
   O    102.83000000    69.73000000    18.46000000
   H     98.25000000    71.25000000    19.39000000
   H    100.87000000    70.13000000    20.16000000
   H    101.33000000    72.35000000    19.11000000
   H    100.51000000    71.82000000    17.67000000
   H    102.71000000    72.26000000    16.65000000
   H    103.83000000    70.94000000    16.59000000
   N     99.71000000    68.06000000    19.04000000
   C    100.44000000    67.39000000    20.10000000
   C     99.80000000    67.41000000    21.48000000
   O     99.18000000    68.41000000    21.81000000
   H     99.08000000    67.44000000    18.54000000
   H    101.40000000    67.88000000    20.23000000
   H    100.63000000    66.37000000    19.76000000
   N     99.90000000    66.32000000    22.25000000
   C     99.15000000    65.96000000    23.44000000
   C    100.05000000    65.38000000    24.51000000
   O    101.07000000    64.75000000    24.25000000
   C     98.22000000    64.82000000    23.02000000
   C     97.24000000    65.21000000    21.94000000
   C     96.15000000    66.06000000    22.19000000
   C     97.38000000    64.64000000    20.67000000
   C     95.20000000    66.23000000    21.18000000
   C     96.39000000    64.76000000    19.69000000
   C     95.27000000    65.58000000    19.93000000
   O     94.38000000    65.99000000    18.99000000
   H    100.64000000    65.67000000    22.02000000
   H     98.58000000    66.82000000    23.81000000
   H     97.55000000    64.53000000    23.84000000
   H     98.78000000    63.98000000    22.61000000
   H     95.99000000    66.49000000    23.17000000
   H     98.22000000    63.98000000    20.53000000
   H     94.29000000    66.79000000    21.35000000
   H     96.53000000    64.28000000    18.73000000
   H     94.48000000    65.65000000    18.09000000
   N     99.70000000    65.59000000    25.78000000
   C    100.37000000    64.99000000    26.92000000
   C    100.01000000    63.54000000    27.23000000
   O    100.78000000    62.82000000    27.87000000
   C    100.36000000    65.98000000    28.08000000
   C     98.99000000    66.09000000    28.73000000
   C    101.42000000    65.66000000    29.13000000
   C     98.90000000    67.23000000    29.75000000
   H     98.98000000    66.27000000    26.00000000
   H    101.44000000    65.02000000    26.73000000
   H    100.72000000    66.93000000    27.68000000
   H     98.74000000    65.13000000    29.18000000
   H     98.22000000    66.36000000    28.01000000
   H    102.36000000    65.52000000    28.60000000
   H    101.55000000    66.53000000    29.77000000
   H    101.21000000    64.77000000    29.73000000
   H     97.89000000    67.51000000    30.04000000
   H     99.46000000    66.86000000    30.61000000
   H     99.43000000    68.06000000    29.28000000
   N     98.82000000    63.11000000    26.81000000
   C     98.28000000    61.78000000    27.02000000
   C     97.40000000    61.57000000    28.24000000
   O     97.23000000    60.41000000    28.60000000
   C     97.66000000    61.43000000    25.67000000
   O     98.42000000    61.88000000    24.57000000
   H     98.23000000    63.82000000    26.40000000
   H     99.05000000    61.01000000    27.11000000
   H     96.64000000    61.81000000    25.60000000
   H     97.61000000    60.34000000    25.63000000
   H     98.53000000    61.24000000    23.86000000
   N     96.95000000    62.60000000    28.97000000
   C     95.83000000    62.49000000    29.89000000
   C     94.96000000    63.74000000    29.92000000
   O     95.54000000    64.80000000    30.15000000
   C     96.40000000    62.30000000    31.29000000
   H     97.22000000    63.54000000    28.74000000
   H     95.19000000    61.65000000    29.61000000
   H     97.20000000    61.57000000    31.25000000
   H     96.84000000    63.22000000    31.66000000
   H     95.67000000    61.89000000    32.00000000
   N     93.64000000    63.63000000    29.84000000
   C     92.67000000    64.68000000    30.10000000
   C     92.94000000    66.07000000    29.54000000
   O     92.48000000    67.07000000    30.08000000
   C     92.40000000    64.62000000    31.60000000
   H     93.17000000    62.76000000    29.62000000
   H     91.70000000    64.40000000    29.69000000
   H     91.58000000    65.26000000    31.92000000
   H     92.18000000    63.58000000    31.84000000
   H     93.33000000    64.88000000    32.11000000
   N     93.56000000    66.17000000    28.36000000
   C     93.42000000    67.31000000    27.47000000
   C     92.11000000    67.23000000    26.70000000
   O     91.48000000    68.27000000    26.51000000
   C     94.59000000    67.23000000    26.49000000
   C     95.82000000    67.64000000    27.30000000
   C     96.01000000    69.14000000    27.48000000
   O     96.15000000    69.89000000    26.50000000
   O     95.91000000    69.70000000    28.59000000
   H     93.70000000    65.25000000    27.98000000
   H     93.43000000    68.18000000    28.12000000
   H     94.49000000    67.92000000    25.65000000
   H     94.64000000    66.25000000    26.03000000
   H     96.63000000    67.17000000    26.74000000
   H     95.82000000    67.27000000    28.32000000
   N     91.66000000    66.07000000    26.21000000
   C     90.31000000    65.83000000    25.74000000
   H     89.67300000    66.66900000    26.02200000
   H     90.31500000    65.72700000    24.65500000
   H     89.92500000    64.91500000    26.19000000
   H     92.24000000    65.27000000    26.41000000
  Ca     96.12000000    71.64000000    24.66000000
   O     98.16000000    72.48000000    26.28000000
   H     99.05000000    72.18000000    26.06000000
   H     98.03000000    72.21000000    27.18000000
   O     93.80000000    70.29000000    24.05000000
   H     92.96000000    70.56000000    24.42000000
   H     93.73000000    70.47000000    23.11000000
   O     97.52000000    69.84000000    23.41000000
   H     97.64000000    69.34000000    22.60000000
   H     98.20000000    69.51000000    23.99000000
   O     95.39000000    73.44000000    26.31000000
   H     95.18000000    73.24000000    27.22000000
   H     95.04000000    74.32000000    26.17000000
   O     95.71000000    71.75000000    22.14000000
   H     96.41000000    72.06000000    21.56000000
   H     95.08000000    71.33000000    21.55000000

Ca 1.70



