%Nproc=28
%chk=holo6.0.chk
%mem=80GB
%NoSave
#MP2(semidirect)/Gen scf=(tight,noincore) Test
#IOP(5/87=12) Density=Current Pop=(MK,readradii) iop(6/33=2) iop(6/42=6)

holo_loop_3_model_6.0 

   0   1
   C     29.50000000    24.99300000    42.67800000
   C     30.98500000    25.04100000    43.02600000
   C     31.33400000    25.96000000    44.18800000
   O     30.51000000    26.54400000    44.88700000
   O     32.67700000    26.17800000    44.29000000
   H     29.43800000    24.65700000    41.64300000
   H     29.08300000    25.98800000    42.83200000
   H     28.91600000    24.28500000    43.26600000
   H     31.56800000    25.40900000    42.18200000
   H     31.40300000    24.07600000    43.31300000
   H     33.15800000    25.50900000    43.79700000
   C     28.46800000    28.95800000    46.97300000
   C     28.35800000    28.25300000    48.32200000
   C     29.13900000    26.94800000    48.38400000
   O     28.54800000    25.87900000    48.64800000
   O     30.29300000    27.01200000    47.90800000
   H     28.19700000    28.29900000    46.14800000
   H     29.49300000    29.28300000    46.79400000
   H     27.80100000    29.81800000    47.04000000
   H     27.34800000    27.89400000    48.52000000
   H     28.63800000    28.97400000    49.09000000
   C     24.87700000    21.10200000    44.37300000
   C     26.27400000    21.69700000    44.52900000
   C     26.40100000    22.75300000    45.62300000
   C     27.83300000    23.19100000    45.89900000
   O     28.11900000    24.31800000    45.44000000
   O     28.57400000    22.52600000    46.65400000
   H     24.60800000    20.57500000    45.28800000
   H     24.87100000    20.40700000    43.53300000
   H     24.15300000    21.89600000    44.19100000
   H     26.51700000    22.22700000    43.60700000
   H     26.99000000    20.90500000    44.75200000
   H     26.13000000    22.31000000    46.58100000
   H     25.78600000    23.63400000    45.43900000
  Ca     30.23000000    24.59800000    47.16400000
   O     30.02800000    22.61900000    49.20100000
   H     29.22300000    22.20900000    48.88400000
   H     30.09300000    22.34400000    50.11500000

C O H 0
aug-cc-pVTZ 
****
@/home/pzhang5/ca_ccpvtz_basisset.gbs/N

Ca 1.70




