%Nproc=28
%chk=holo3.1.chk
%mem=80GB
%NoSave
#MP2(semidirect)/Gen scf=(tight,noincore) Test
#IOP(5/87=12) Density=Current Pop=(MK,readradii) iop(6/33=2) iop(6/42=6)

holo_loop_3_model_3.1 

   0   1
   C     36.89500000    56.10000000    44.03900000
   C     37.65800000    54.80700000    44.31100000
   C     38.38700000    54.82100000    45.64700000
   O     38.02100000    55.41100000    46.66100000
   O     39.57300000    54.15300000    45.55500000
   H     36.44300000    56.01500000    43.05100000
   H     37.59300000    56.93600000    44.09000000
   H     36.09200000    56.27100000    44.75500000
   H     38.48000000    54.70200000    43.60200000
   H     36.98400000    53.95100000    44.26900000
   H     39.82600000    53.88500000    44.66900000
   C     39.05100000    60.21600000    47.34700000
   C     38.19800000    60.24700000    48.61200000
   C     37.46000000    58.98600000    49.03900000
   O     36.41800000    59.20200000    49.69500000
   O     37.88600000    57.84800000    48.74400000
   H     38.42600000    60.06700000    46.46700000
   H     39.76500000    59.39400000    47.39900000
   H     39.58100000    61.16700000    47.28500000
   H     37.51300000    61.08900000    48.51100000
   H     38.87600000    60.49400000    49.42900000
   C     29.82000000    57.05300000    45.43800000
   C     31.22200000    56.45600000    45.52100000
   C     32.00300000    57.13700000    46.64100000
   C     33.38100000    56.51900000    46.83600000
   O     33.39000000    55.53000000    47.59900000
   O     34.43700000    57.05500000    46.43400000
   H     29.23400000    56.88000000    46.34000000
   H     29.25200000    56.60200000    44.62400000
   H     30.00000000    58.11100000    45.24800000
   H     31.72700000    56.54100000    44.55900000
   H     31.10400000    55.39900000    45.76000000
   H     31.41800000    57.13800000    47.56000000
   H     32.16500000    58.17200000    46.34100000
  Ca     36.09700000    56.05100000    48.36000000
   O     34.62000000    54.38000000    49.97000000
   H     34.11600000    53.92200000    50.64200000
   H     33.96300000    54.69700000    49.35000000

C O H 0
aug-cc-pVTZ 
****
@/home/pzhang5/ca_ccpvtz_basisset.gbs/N

Ca 1.70




