%Nproc=28
%chk=holo5.1.chk
%mem=80GB
%NoSave
#MP2(semidirect)/Gen scf=(tight,noincore) Test
#IOP(5/87=12) Density=Current Pop=(MK,readradii) iop(6/33=2) iop(6/42=6)

holo_loop_3_model_5.1 

   0   1
   C     33.96900000    18.50600000    40.51900000
   C     35.15000000    19.36100000    40.96900000
   C     34.76000000    20.40200000    42.00800000
   O     33.79500000    20.23300000    42.75000000
   O     35.50200000    21.54700000    42.02400000
   H     34.29000000    17.89500000    39.67500000
   H     33.14600000    19.16000000    40.23100000
   H     33.63300000    17.84200000    41.31500000
   H     35.58500000    19.92300000    40.14200000
   H     35.90500000    18.76500000    41.48200000
   H     36.24000000    21.41700000    41.42400000
   C     29.95600000    21.93700000    43.28200000
   C     29.41500000    21.52900000    44.64900000
   C     30.36600000    20.70800000    45.50700000
   O     29.91100000    20.22600000    46.56700000
   O     31.52700000    20.49800000    45.09300000
   H     30.27600000    21.10600000    42.65400000
   H     30.84700000    22.55900000    43.37000000
   H     29.10800000    22.50000000    42.89300000
   H     28.52500000    20.90800000    44.54300000
   H     29.25400000    22.43400000    45.23400000
   C     30.17100000    13.20500000    41.76500000
   C     31.26600000    14.19400000    42.15500000
   C     30.69400000    15.42700000    42.84900000
   C     31.69900000    16.46900000    43.32000000
   O     31.52800000    17.66900000    43.01600000
   O     32.57100000    16.06600000    44.11900000
   H     29.78900000    12.69800000    42.65100000
   H     30.57500000    12.45600000    41.08400000
   H     29.37200000    13.75900000    41.27400000
   H     31.76400000    14.52500000    41.24400000
   H     31.99900000    13.76500000    42.83900000
   H     30.23800000    15.21500000    43.81700000
   H     30.12400000    16.10700000    42.21600000
  Ca     33.12700000    18.49500000    44.86300000
   O     31.05800000    17.83800000    46.60600000
   H     30.28300000    17.27700000    46.58000000
   H     30.71000000    18.73000000    46.60400000

C O H 0
aug-cc-pVTZ 
****
@/home/pzhang5/ca_ccpvtz_basisset.gbs/N

Ca 1.70




