%chk=loop4.cluster119.chk
%nprocshared=20
%mem=10GB
%nosave
#b3lyp/svp scf=(tight,noincore,xqc) Test 
#IOP(5/87=12) Density=Current Pop=(MK,readradii) iop(6/33=2) iop(6/42=6)

loop4.cluster119 

   -3  1 
   C    108.33000000    27.84000000    67.02000000
   C    109.53000000    28.43000000    67.75000000
   O    109.98000000    29.56000000    67.60000000
   H    107.52100000    28.57100000    67.00200000
   H    108.61400000    27.58800000    65.99800000
   H    107.99500000    26.94100000    67.53700000
   N    110.12000000    27.60000000    68.61000000
   C    111.35000000    27.89000000    69.33000000
   C    111.30000000    28.97000000    70.41000000
   O    112.33000000    29.59000000    70.69000000
   C    112.53000000    27.99000000    68.37000000
   C    112.48000000    27.02000000    67.20000000
   O    112.23000000    27.34000000    66.02000000
   O    112.87000000    25.84000000    67.34000000
   H    109.86000000    26.62000000    68.55000000
   H    111.56000000    26.95000000    69.85000000
   H    113.51000000    27.78000000    68.79000000
   H    112.56000000    28.97000000    67.90000000
   N    110.16000000    29.21000000    71.05000000
   C    110.06000000    30.06000000    72.22000000
   C    110.08000000    29.18000000    73.46000000
   O    109.46000000    28.12000000    73.49000000
   C    108.82000000    30.93000000    72.14000000
   C    108.95000000    32.02000000    71.08000000
   C    108.21000000    31.47000000    73.43000000
   C    107.62000000    32.35000000    70.40000000
   H    109.30000000    28.72000000    70.84000000
   H    110.99000000    30.62000000    72.32000000
   H    108.09000000    30.21000000    71.77000000
   H    109.63000000    31.73000000    70.28000000
   H    109.31000000    32.93000000    71.57000000
   H    107.26000000    31.98000000    73.25000000
   H    108.00000000    30.67000000    74.14000000
   H    108.93000000    32.09000000    73.96000000
   H    106.83000000    32.49000000    71.13000000
   H    107.67000000    33.14000000    69.64000000
   H    107.40000000    31.44000000    69.85000000
   N    110.81000000    29.43000000    74.55000000
   C    111.94000000    30.33000000    74.62000000
   C    113.22000000    29.81000000    73.96000000
   O    113.97000000    30.66000000    73.48000000
   C    112.28000000    30.64000000    76.07000000
   C    111.14000000    31.33000000    76.81000000
   O    110.16000000    30.72000000    77.28000000
   O    111.27000000    32.57000000    76.98000000
   H    110.73000000    28.79000000    75.33000000
   H    111.53000000    31.24000000    74.17000000
   H    113.14000000    31.30000000    76.13000000
   H    112.47000000    29.75000000    76.68000000
   N    113.52000000    28.51000000    73.91000000
   C    114.56000000    27.92000000    73.09000000
   C    116.00000000    28.19000000    73.48000000
   O    116.27000000    28.38000000    74.66000000
   H    112.93000000    27.90000000    74.46000000
   H    114.35000000    28.15000000    72.04000000
   H    114.47000000    26.84000000    73.23000000
   N    116.90000000    28.44000000    72.52000000
   C    118.30000000    28.82000000    72.54000000
   C    118.62000000    30.17000000    71.92000000
   O    119.75000000    30.57000000    71.63000000
   C    119.22000000    27.76000000    71.94000000
   C    118.88000000    27.23000000    70.55000000
   O    119.38000000    26.14000000    70.21000000
   O    118.13000000    27.93000000    69.84000000
   H    116.57000000    28.21000000    71.59000000
   H    118.56000000    28.87000000    73.60000000
   H    119.25000000    26.82000000    72.51000000
   H    120.22000000    28.18000000    71.94000000
   N    117.53000000    30.86000000    71.58000000
   C    117.67000000    32.11000000    70.85000000
   C    118.21000000    31.93000000    69.44000000
   O    118.61000000    32.94000000    68.87000000
   H    116.64000000    30.53000000    71.91000000
   H    118.35000000    32.72000000    71.44000000
   H    116.68000000    32.55000000    70.85000000
   N    118.25000000    30.71000000    68.89000000
   C    118.66000000    30.33000000    67.55000000
   C    117.83000000    31.06000000    66.51000000
   O    118.09000000    32.21000000    66.17000000
   C    120.16000000    30.50000000    67.35000000
   C    121.06000000    29.70000000    68.30000000
   C    122.53000000    29.78000000    67.94000000
   N    123.29000000    28.73000000    68.26000000
   O    123.07000000    30.75000000    67.41000000
   H    117.99000000    29.92000000    69.46000000
   H    118.39000000    29.28000000    67.46000000
   H    120.34000000    31.57000000    67.50000000
   H    120.46000000    30.24000000    66.33000000
   H    120.68000000    28.68000000    68.37000000
   H    120.95000000    30.10000000    69.31000000
   H    122.92000000    27.97000000    68.82000000
   H    124.12000000    28.58000000    67.70000000
   N    116.88000000    30.36000000    65.88000000
   C    116.18000000    30.85000000    64.71000000
   C    116.23000000    29.84000000    63.57000000
   O    116.05000000    28.64000000    63.78000000
   C    114.72000000    31.24000000    64.92000000
   C    113.92000000    30.21000000    65.72000000
   C    114.68000000    32.59000000    65.63000000
   H    116.66000000    29.42000000    66.18000000
   H    116.80000000    31.65000000    64.31000000
   H    114.30000000    31.41000000    63.93000000
   H    112.84000000    30.39000000    65.71000000
   H    114.09000000    29.26000000    65.23000000
   H    114.20000000    30.10000000    66.76000000
   H    113.66000000    32.97000000    65.56000000
   H    114.96000000    32.40000000    66.67000000
   H    115.36000000    33.32000000    65.21000000
   N    116.35000000    30.32000000    62.33000000
   C    116.11000000    29.57000000    61.12000000
   C    114.62000000    29.39000000    60.84000000
   O    113.76000000    29.97000000    61.49000000
   C    116.69000000    30.32000000    59.93000000
   C    117.04000000    29.52000000    58.68000000
   N    117.60000000    30.11000000    57.62000000
   O    116.84000000    28.31000000    58.58000000
   H    116.53000000    31.31000000    62.28000000
   H    116.64000000    28.62000000    61.17000000
   H    117.54000000    30.95000000    60.20000000
   H    115.98000000    31.02000000    59.49000000
   H    117.57000000    31.12000000    57.62000000
   H    117.79000000    29.65000000    56.75000000
   N    114.27000000    28.56000000    59.85000000
   C    112.99000000    27.94000000    59.56000000
   C    113.20000000    26.50000000    59.11000000
   O    114.23000000    26.14000000    58.53000000
   C    112.20000000    28.74000000    58.53000000
   C    113.00000000    29.19000000    57.33000000
   C    112.85000000    28.44000000    56.15000000
   C    113.98000000    30.19000000    57.35000000
   C    113.54000000    28.71000000    54.96000000
   C    114.55000000    30.58000000    56.14000000
   C    114.37000000    29.85000000    54.95000000
   O    115.16000000    30.11000000    53.87000000
   H    115.08000000    28.23000000    59.35000000
   H    112.43000000    27.84000000    60.48000000
   H    111.93000000    29.62000000    59.10000000
   H    111.28000000    28.26000000    58.18000000
   H    112.16000000    27.62000000    56.14000000
   H    114.23000000    30.73000000    58.26000000
   H    113.27000000    28.14000000    54.08000000
   H    115.27000000    31.38000000    56.24000000
   H    115.74000000    30.88000000    53.92000000
   N    112.16000000    25.67000000    59.17000000
   C    112.18000000    24.26000000    58.82000000
   C    111.30000000    24.01000000    57.60000000
   O    111.84000000    23.79000000    56.51000000
   C    111.90000000    23.30000000    59.97000000
   C    112.75000000    23.76000000    61.15000000
   C    112.71000000    22.71000000    62.25000000
   O    113.01000000    23.01000000    63.43000000
   O    112.72000000    21.50000000    61.93000000
   H    111.29000000    25.96000000    59.60000000
   H    113.18000000    23.98000000    58.49000000
   H    112.00000000    22.28000000    59.60000000
   H    110.88000000    23.41000000    60.33000000
   H    112.30000000    24.64000000    61.61000000
   H    113.75000000    23.88000000    60.74000000
   N    109.98000000    24.17000000    57.52000000
   C    109.00000000    24.51000000    58.53000000
   C    107.97000000    25.55000000    58.11000000
   O    107.44000000    25.48000000    57.00000000
   C    108.27000000    23.26000000    59.01000000
   C    107.53000000    22.40000000    57.99000000
   C    108.30000000    21.47000000    57.07000000
   O    108.47000000    21.86000000    55.89000000
   O    108.74000000    20.36000000    57.42000000
   H    109.51000000    23.98000000    56.65000000
   H    109.55000000    24.91000000    59.39000000
   H    107.50000000    23.67000000    59.66000000
   H    108.94000000    22.67000000    59.64000000
   H    106.93000000    23.09000000    57.39000000
   H    106.77000000    21.83000000    58.52000000
   N    107.57000000    26.46000000    59.00000000
   C    106.36000000    27.26000000    58.99000000
   H    105.56700000    26.72400000    59.51100000
   H    106.54700000    28.20900000    59.49200000
   H    106.05600000    27.44700000    57.96000000
   H    108.05000000    26.55000000    59.89000000
  Ca    112.12800000    24.84000000    64.96000000
   O    114.89800000    23.92000000    65.40000000
   H    115.83800000    23.77000000    65.43000000
   H    114.60800000    23.50000000    64.59000000
   O    110.77800000    26.02000000    62.80000000
   H    109.95800000    25.53000000    62.70000000
   H    110.54800000    26.92000000    62.55000000
   O    113.71800000    26.43000000    63.60000000
   H    113.69800000    27.33000000    63.93000000
   H    114.18800000    26.49000000    62.77000000
   O    112.01800000    23.17000000    67.15000000
   H    111.86800000    22.42000000    67.73000000
   H    112.82800000    23.56000000    67.46000000

Ca 1.00



