%chk=loop4.cluster156.chk
%nprocshared=20
%mem=10GB
%nosave
#b3lyp/svp scf=(tight,noincore,xqc) Test 
#IOP(5/87=12) Density=Current Pop=(MK,readradii) iop(6/33=2) iop(6/42=6)

loop4.cluster156 

   -3  1 
   C     69.52000000    47.55000000    28.07000000
   C     70.00000000    46.35000000    28.88000000
   O     71.02000000    46.44000000    29.56000000
   H     68.61200000    47.95200000    28.52000000
   H     70.29300000    48.31800000    28.06500000
   H     69.31000000    47.23800000    27.04700000
   N     69.35000000    45.19000000    28.80000000
   C     69.67000000    43.93000000    29.44000000
   C     70.06000000    44.05000000    30.90000000
   O     71.01000000    43.41000000    31.36000000
   C     70.64000000    43.11000000    28.59000000
   C     70.26000000    43.17000000    27.12000000
   O     71.04000000    43.64000000    26.27000000
   O     69.23000000    42.57000000    26.72000000
   H     68.57000000    45.17000000    28.16000000
   H     68.74000000    43.37000000    29.50000000
   H     70.61000000    42.07000000    28.90000000
   H     71.68000000    43.43000000    28.62000000
   N     69.35000000    44.82000000    31.73000000
   C     69.48000000    44.93000000    33.17000000
   C     68.60000000    43.86000000    33.79000000
   O     67.46000000    43.71000000    33.35000000
   C     69.18000000    46.38000000    33.54000000
   C     70.29000000    47.29000000    33.02000000
   C     69.01000000    46.62000000    35.03000000
   C     70.01000000    48.79000000    33.11000000
   H     68.56000000    45.29000000    31.31000000
   H     70.52000000    44.67000000    33.38000000
   H     68.35000000    46.80000000    32.97000000
   H     70.51000000    47.18000000    31.96000000
   H     71.16000000    46.94000000    33.57000000
   H     68.29000000    46.02000000    35.59000000
   H     69.98000000    46.39000000    35.47000000
   H     68.77000000    47.67000000    35.25000000
   H     70.61000000    49.25000000    32.32000000
   H     68.96000000    48.96000000    32.89000000
   H     70.24000000    49.20000000    34.09000000
   N     68.97000000    43.15000000    34.86000000
   C     70.28000000    43.22000000    35.48000000
   C     71.29000000    42.42000000    34.67000000
   O     72.41000000    42.86000000    34.41000000
   C     70.21000000    42.81000000    36.95000000
   C     69.18000000    43.67000000    37.67000000
   O     67.98000000    43.33000000    37.60000000
   O     69.54000000    44.75000000    38.19000000
   H     68.37000000    42.57000000    35.44000000
   H     70.62000000    44.25000000    35.49000000
   H     71.21000000    43.10000000    37.29000000
   H     70.07000000    41.74000000    37.07000000
   N     70.94000000    41.19000000    34.28000000
   C     71.81000000    40.32000000    33.52000000
   C     73.20000000    40.17000000    34.12000000
   O     73.49000000    39.92000000    35.29000000
   H     70.02000000    40.87000000    34.54000000
   H     71.85000000    40.57000000    32.46000000
   H     71.51000000    39.28000000    33.54000000
   N     74.16000000    40.33000000    33.20000000
   C     75.59000000    40.36000000    33.47000000
   C     76.15000000    41.77000000    33.36000000
   O     77.20000000    42.01000000    33.95000000
   C     76.31000000    39.39000000    32.53000000
   C     76.00000000    39.53000000    31.04000000
   O     76.38000000    38.73000000    30.16000000
   O     75.18000000    40.35000000    30.60000000
   H     73.90000000    40.40000000    32.23000000
   H     75.79000000    40.03000000    34.49000000
   H     76.04000000    38.40000000    32.88000000
   H     77.35000000    39.66000000    32.72000000
   N     75.39000000    42.71000000    32.79000000
   C     75.87000000    44.01000000    32.36000000
   C     77.14000000    43.91000000    31.54000000
   O     78.13000000    44.61000000    31.76000000
   H     74.47000000    42.49000000    32.45000000
   H     76.03000000    44.58000000    33.28000000
   H     74.99000000    44.41000000    31.85000000
   N     77.06000000    43.00000000    30.57000000
   C     78.18000000    42.60000000    29.75000000
   C     78.94000000    43.73000000    29.07000000
   O     80.15000000    43.75000000    28.85000000
   C     79.03000000    41.66000000    30.60000000
   C     79.67000000    40.42000000    29.99000000
   C     80.42000000    39.63000000    31.05000000
   N     79.85000000    38.50000000    31.49000000
   O     81.49000000    39.97000000    31.55000000
   H     76.19000000    42.50000000    30.43000000
   H     77.74000000    41.98000000    28.96000000
   H     78.61000000    41.40000000    31.57000000
   H     79.88000000    42.22000000    31.00000000
   H     80.40000000    40.78000000    29.26000000
   H     78.98000000    39.79000000    29.41000000
   H     78.96000000    38.22000000    31.10000000
   H     80.35000000    38.06000000    32.25000000
   N     78.23000000    44.82000000    28.78000000
   C     78.80000000    45.97000000    28.10000000
   C     78.89000000    45.88000000    26.59000000
   O     78.31000000    45.03000000    25.91000000
   C     78.09000000    47.26000000    28.49000000
   C     76.78000000    47.57000000    27.77000000
   C     77.81000000    47.44000000    29.98000000
   H     77.23000000    44.77000000    28.92000000
   H     79.81000000    46.03000000    28.50000000
   H     78.71000000    48.12000000    28.25000000
   H     76.85000000    48.05000000    26.80000000
   H     76.28000000    46.62000000    27.63000000
   H     76.06000000    48.14000000    28.37000000
   H     77.68000000    48.49000000    30.22000000
   H     76.89000000    47.01000000    30.37000000
   H     78.67000000    47.02000000    30.51000000
   N     79.68000000    46.74000000    25.94000000
   C     79.76000000    46.77000000    24.50000000
   C     79.79000000    48.23000000    24.05000000
   O     80.18000000    49.12000000    24.80000000
   C     81.03000000    46.05000000    24.07000000
   C     81.34000000    46.12000000    22.58000000
   N     80.59000000    45.37000000    21.76000000
   O     82.24000000    46.84000000    22.18000000
   H     80.24000000    47.39000000    26.48000000
   H     78.88000000    46.29000000    24.07000000
   H     80.87000000    45.00000000    24.32000000
   H     81.92000000    46.40000000    24.59000000
   H     79.77000000    44.87000000    22.09000000
   H     80.83000000    45.22000000    20.79000000
   N     79.45000000    48.56000000    22.80000000
   C     79.08000000    49.86000000    22.28000000
   C     78.23000000    49.69000000    21.03000000
   O     78.43000000    50.27000000    19.97000000
   C     80.35000000    50.67000000    22.08000000
   C     80.26000000    52.16000000    22.29000000
   C     80.70000000    52.74000000    23.48000000
   C     79.56000000    52.95000000    21.36000000
   C     80.41000000    54.05000000    23.87000000
   C     79.17000000    54.23000000    21.74000000
   C     79.62000000    54.78000000    22.96000000
   O     79.26000000    56.05000000    23.31000000
   H     79.32000000    47.92000000    22.03000000
   H     78.45000000    50.29000000    23.07000000
   H     80.75000000    50.43000000    21.10000000
   H     81.11000000    50.41000000    22.82000000
   H     81.20000000    52.10000000    24.20000000
   H     79.07000000    52.53000000    20.49000000
   H     80.87000000    54.45000000    24.76000000
   H     78.53000000    54.77000000    21.06000000
   H     78.51000000    56.39000000    22.83000000
   N     77.26000000    48.79000000    21.22000000
   C     76.43000000    48.29000000    20.14000000
   C     75.33000000    49.28000000    19.79000000
   O     75.16000000    49.57000000    18.61000000
   C     75.99000000    46.83000000    20.28000000
   C     77.22000000    45.92000000    20.30000000
   C     76.94000000    44.44000000    20.06000000
   O     76.88000000    43.66000000    21.03000000
   O     76.78000000    43.99000000    18.90000000
   H     77.06000000    48.47000000    22.15000000
   H     77.02000000    48.31000000    19.22000000
   H     75.36000000    46.56000000    19.44000000
   H     75.47000000    46.70000000    21.22000000
   H     77.73000000    46.00000000    21.26000000
   H     78.00000000    46.25000000    19.61000000
   N     74.42000000    49.75000000    20.65000000
   C     74.28000000    49.68000000    22.09000000
   C     75.16000000    50.66000000    22.85000000
   O     75.77000000    51.59000000    22.33000000
   C     72.79000000    49.88000000    22.39000000
   C     71.88000000    48.83000000    21.78000000
   C     72.03000000    47.43000000    22.36000000
   O     71.53000000    46.46000000    21.73000000
   O     72.34000000    47.27000000    23.56000000
   H     73.64000000    50.20000000    20.19000000
   H     74.63000000    48.69000000    22.37000000
   H     72.44000000    50.87000000    22.10000000
   H     72.69000000    49.88000000    23.47000000
   H     72.08000000    48.72000000    20.71000000
   H     70.81000000    49.04000000    21.87000000
   N     75.21000000    50.44000000    24.17000000
   C     75.69000000    51.35000000    25.19000000
   H     76.58500000    51.85900000    24.83100000
   H     74.91800000    52.08700000    25.41200000
   H     75.93000000    50.79000000    26.09400000
   H     74.64000000    49.71000000    24.56000000
  Ca     71.15000000    45.00000000    23.88000000
   O     73.68000000    44.83000000    24.86000000
   H     73.98000000    44.62000000    25.74000000
   H     74.47000000    44.83000000    24.32000000
   O     72.79000000    43.13000000    22.34000000
   H     72.79000000    43.08000000    21.39000000
   H     73.62000000    42.71000000    22.60000000

Ca 1.00



