%chk=loop2.cluster189.chk
%nprocshared=20
%mem=10GB
%nosave
#b3lyp/svp scf=(tight,noincore,xqc) Test 
#IOP(5/87=12) Density=Current Pop=(MK,readradii) iop(6/33=2) iop(6/42=6)

loop2.cluster189 

   -2  1 
   C     58.80000000    47.43000000    11.74000000
   C     60.04000000    46.83000000    11.09000000
   O     60.02000000    45.73000000    10.54000000
   H     57.96500000    46.73700000    11.63600000
   H     58.99400000    47.60800000    12.79800000
   H     58.55300000    48.37200000    11.25100000
   N     61.17000000    47.50000000    11.31000000
   C     62.48000000    47.04000000    10.89000000
   C     62.64000000    47.11000000     9.38000000
   O     63.71000000    47.48000000     8.89000000
   C     63.48000000    47.99000000    11.54000000
   C     63.37000000    49.46000000    11.16000000
   O     64.32000000    50.19000000    11.51000000
   O     62.50000000    49.84000000    10.35000000
   H     61.05000000    48.46000000    11.61000000
   H     62.74000000    46.04000000    11.23000000
   H     64.46000000    47.59000000    11.28000000
   H     63.54000000    47.95000000    12.63000000
   N     61.63000000    46.71000000     8.61000000
   C     61.50000000    46.73000000     7.17000000
   C     60.05000000    46.59000000     6.72000000
   O     59.33000000    45.67000000     7.11000000
   C     62.23000000    45.47000000     6.71000000
   H     60.78000000    46.37000000     9.05000000
   H     61.91000000    47.66000000     6.76000000
   H     61.63000000    44.60000000     6.99000000
   H     62.31000000    45.43000000     5.62000000
   H     63.21000000    45.39000000     7.18000000
   N     59.59000000    47.37000000     5.74000000
   C     60.19000000    48.45000000     5.00000000
   C     60.30000000    49.75000000     5.79000000
   O     59.76000000    49.84000000     6.89000000
   C     59.48000000    48.59000000     3.66000000
   C     58.03000000    49.05000000     3.63000000
   O     57.83000000    49.97000000     2.81000000
   O     57.22000000    48.49000000     4.40000000
   H     58.59000000    47.32000000     5.60000000
   H     61.21000000    48.19000000     4.71000000
   H     59.44000000    47.59000000     3.22000000
   H     60.05000000    49.24000000     3.00000000
   N     60.96000000    50.77000000     5.23000000
   C     61.24000000    52.04000000     5.86000000
   C     61.11000000    53.32000000     5.05000000
   O     62.12000000    54.00000000     4.87000000
   H     61.21000000    50.60000000     4.27000000
   H     62.25000000    51.95000000     6.26000000
   H     60.52000000    52.14000000     6.68000000
   N     59.92000000    53.75000000     4.64000000
   C     58.64000000    53.07000000     4.54000000
   C     57.84000000    53.24000000     5.82000000
   O     57.41000000    54.36000000     6.11000000
   C     57.93000000    53.65000000     3.32000000
   C     58.56000000    53.42000000     1.95000000
   N     58.75000000    52.18000000     1.51000000
   O     58.80000000    54.40000000     1.25000000
   H     60.04000000    54.66000000     4.21000000
   H     58.84000000    52.01000000     4.33000000
   H     57.74000000    54.72000000     3.40000000
   H     56.91000000    53.28000000     3.40000000
   H     58.33000000    51.44000000     2.06000000
   H     59.17000000    52.04000000     0.60000000
   N     57.53000000    52.14000000     6.50000000
   C     56.88000000    52.23000000     7.79000000
   C     55.41000000    52.59000000     7.72000000
   O     54.90000000    53.33000000     8.56000000
   H     57.79000000    51.19000000     6.25000000
   H     57.38000000    53.00000000     8.38000000
   H     57.00000000    51.28000000     8.31000000
   N     54.74000000    52.14000000     6.65000000
   C     53.30000000    52.20000000     6.60000000
   C     52.62000000    50.87000000     6.31000000
   O     53.20000000    50.04000000     5.61000000
   C     52.88000000    53.23000000     5.56000000
   C     53.32000000    54.61000000     6.05000000
   O     53.45000000    52.89000000     4.32000000
   H     55.26000000    51.86000000     5.83000000
   H     52.90000000    52.59000000     7.54000000
   H     51.80000000    53.27000000     5.37000000
   H     53.93000000    53.67000000     4.01000000
   H     53.00000000    54.73000000     7.09000000
   H     54.39000000    54.75000000     5.89000000
   H     52.83000000    55.31000000     5.37000000
   N     51.54000000    50.66000000     7.06000000
   C     51.14000000    49.31000000     7.40000000
   C     50.19000000    48.64000000     6.42000000
   O     49.04000000    49.05000000     6.32000000
   C     50.64000000    49.23000000     8.84000000
   C     51.73000000    49.43000000     9.88000000
   C     49.42000000    50.07000000     9.21000000
   C     52.42000000    50.78000000    10.09000000
   H     51.22000000    51.40000000     7.66000000
   H     52.07000000    48.74000000     7.39000000
   H     50.36000000    48.18000000     8.94000000
   H     52.49000000    48.66000000     9.75000000
   H     51.23000000    49.19000000    10.82000000
   H     49.24000000    50.33000000    10.25000000
   H     49.30000000    51.03000000     8.71000000
   H     48.53000000    49.49000000     8.96000000
   H     53.35000000    50.61000000    10.62000000
   H     52.69000000    51.25000000     9.14000000
   H     51.80000000    51.43000000    10.71000000
   N     50.63000000    47.53000000     5.82000000
   C     49.80000000    46.67000000     5.00000000
   C     49.47000000    45.41000000     5.78000000
   O     50.09000000    45.21000000     6.83000000
   C     50.47000000    46.37000000     3.67000000
   C     51.91000000    45.88000000     3.71000000
   O     52.80000000    46.71000000     3.99000000
   O     52.17000000    44.68000000     3.48000000
   H     51.63000000    47.40000000     5.74000000
   H     48.90000000    47.19000000     4.67000000
   H     50.33000000    47.22000000     3.01000000
   H     49.79000000    45.59000000     3.33000000
   N     48.49000000    44.61000000     5.35000000
   C     47.84000000    43.54000000     6.09000000
   C     48.75000000    42.68000000     6.96000000
   O     48.60000000    42.59000000     8.18000000
   C     46.60000000    44.19000000     6.71000000
   C     45.60000000    43.20000000     7.28000000
   C     45.10000000    43.27000000     8.58000000
   C     45.06000000    42.17000000     6.50000000
   C     44.12000000    42.45000000     9.16000000
   C     44.34000000    41.14000000     7.10000000
   C     43.79000000    41.35000000     8.37000000
   H     48.22000000    44.69000000     4.38000000
   H     47.47000000    42.84000000     5.35000000
   H     46.08000000    44.79000000     5.96000000
   H     46.91000000    44.87000000     7.49000000
   H     45.38000000    44.16000000     9.14000000
   H     45.36000000    42.04000000     5.47000000
   H     43.70000000    42.62000000    10.14000000
   H     44.08000000    40.22000000     6.59000000
   H     43.06000000    40.67000000     8.79000000
   N     49.78000000    42.04000000     6.40000000
   C     50.69000000    41.24000000     7.17000000
   C     51.54000000    42.02000000     8.16000000
   O     51.82000000    41.54000000     9.26000000
   C     51.55000000    40.41000000     6.22000000
   C     50.71000000    40.52000000     4.95000000
   C     50.08000000    41.91000000     4.98000000
   H     50.13000000    40.41000000     7.62000000
   H     52.52000000    40.89000000     6.04000000
   H     51.63000000    39.38000000     6.57000000
   H     51.31000000    40.33000000     4.06000000
   H     49.89000000    39.80000000     5.01000000
   H     50.82000000    42.64000000     4.66000000
   H     49.18000000    41.93000000     4.36000000
   N     51.93000000    43.26000000     7.85000000
   C     52.72000000    44.06000000     8.76000000
   C     51.79000000    44.33000000     9.93000000
   O     52.16000000    44.19000000    11.10000000
   C     53.09000000    45.39000000     8.12000000
   C     54.21000000    45.12000000     7.13000000
   C     54.70000000    46.33000000     6.34000000
   O     55.50000000    46.14000000     5.40000000
   O     54.38000000    47.51000000     6.61000000
   H     51.62000000    43.73000000     7.00000000
   H     53.62000000    43.55000000     9.11000000
   H     53.29000000    46.10000000     8.92000000
   H     52.26000000    45.83000000     7.55000000
   H     53.81000000    44.36000000     6.46000000
   H     55.03000000    44.68000000     7.70000000
   N     50.56000000    44.77000000     9.66000000
   C     49.61000000    45.13000000    10.70000000
   H     48.66400000    44.61900000    10.52000000
   H     50.00400000    44.83300000    11.67200000
   H     49.44800000    46.20800000    10.68700000
   H     50.26000000    44.96000000     8.72000000
  Ca     54.75000000    48.36000000     4.22000000
   O     55.11000000    50.96000000     3.61000000
   H     55.40000000    51.31000000     2.77000000
   H     54.36000000    51.51000000     3.85000000
   O     55.41000000    46.97000000     2.07000000
   H     54.77000000    46.33000000     1.78000000
   H     56.22000000    46.73000000     1.63000000
   O     53.12000000    49.53000000     2.34000000
   H     52.20000000    49.75000000     2.49000000
   H     53.28000000    49.77000000     1.43000000

Ca 1.00



