%chk=loop3.cluster51.chk
%nprocshared=20
%mem=10GB
%nosave
#b3lyp/svp scf=(tight,noincore,xqc) Test 
#IOP(5/87=12) Density=Current Pop=(MK,readradii) iop(6/33=2) iop(6/42=6)

loop3.cluster51 

   0  1 
   C     98.51000000    43.24000000   104.40000000
   C     99.54000000    44.34000000   104.15000000
   O    100.06000000    44.42000000   103.04000000
   H     97.60000000    43.46200000   103.84200000
   H     98.91300000    42.28200000   104.07100000
   H     98.28000000    43.19200000   105.46400000
   N     99.70000000    45.26000000   105.10000000
   C    100.69000000    46.31000000   104.99000000
   C    102.07000000    45.85000000   105.45000000
   O    102.16000000    45.05000000   106.37000000
   C    100.11000000    47.55000000   105.66000000
   C    100.47000000    47.52000000   107.14000000
   O     99.73000000    46.87000000   107.90000000
   O    101.41000000    48.26000000   107.52000000
   H     99.18000000    45.12000000   105.95000000
   H    100.78000000    46.57000000   103.93000000
   H     99.03000000    47.66000000   105.61000000
   H    100.41000000    48.50000000   105.21000000
   N    103.16000000    46.38000000   104.89000000
   C    104.54000000    46.33000000   105.33000000
   C    105.32000000    45.09000000   104.90000000
   O    106.43000000    44.89000000   105.37000000
   C    105.30000000    47.49000000   104.69000000
   C    105.03000000    48.84000000   105.36000000
   C    105.93000000    49.81000000   104.61000000
   C    105.69000000    51.23000000   105.13000000
   N    106.80000000    52.02000000   104.56000000
   H    103.00000000    47.07000000   104.17000000
   H    104.57000000    46.42000000   106.42000000
   H    105.14000000    47.44000000   103.62000000
   H    106.37000000    47.28000000   104.74000000
   H    105.30000000    48.67000000   106.41000000
   H    103.95000000    48.99000000   105.34000000
   H    105.74000000    49.79000000   103.54000000
   H    106.91000000    49.37000000   104.78000000
   H    105.69000000    51.35000000   106.22000000
   H    104.72000000    51.66000000   104.88000000
   H    106.86000000    51.77000000   103.59000000
   H    106.64000000    53.01000000   104.61000000
   H    107.70000000    51.78000000   104.94000000
   N    104.70000000    44.16000000   104.17000000
   C    105.24000000    42.86000000   103.84000000
   C    106.08000000    42.93000000   102.57000000
   O    106.87000000    42.05000000   102.26000000
   C    104.13000000    41.85000000   103.55000000
   C    103.25000000    42.03000000   102.32000000
   O    102.50000000    41.07000000   102.06000000
   O    103.31000000    43.07000000   101.62000000
   H    103.72000000    44.32000000   104.00000000
   H    105.95000000    42.47000000   104.57000000
   H    103.55000000    41.81000000   104.47000000
   H    104.57000000    40.87000000   103.35000000
   N    106.03000000    44.08000000   101.88000000
   C    106.65000000    44.40000000   100.61000000
   C    107.27000000    45.79000000   100.54000000
   O    106.91000000    46.69000000   101.29000000
   H    105.50000000    44.86000000   102.22000000
   H    105.93000000    44.19000000    99.82000000
   H    107.32000000    43.55000000   100.49000000
   N    108.10000000    46.14000000    99.56000000
   C    108.63000000    45.30000000    98.50000000
   C    108.29000000    45.97000000    97.18000000
   O    108.12000000    47.18000000    97.09000000
   C    110.13000000    45.21000000    98.77000000
   C    110.38000000    44.46000000   100.07000000
   N    110.41000000    43.13000000   100.02000000
   O    110.54000000    45.10000000   101.11000000
   H    108.37000000    47.11000000    99.54000000
   H    108.24000000    44.28000000    98.48000000
   H    110.51000000    46.21000000    98.99000000
   H    110.65000000    44.69000000    97.96000000
   H    110.12000000    42.62000000    99.20000000
   H    110.72000000    42.64000000   100.84000000
   N    108.33000000    45.27000000    96.04000000
   C    108.57000000    43.85000000    95.88000000
   C    107.55000000    42.85000000    96.42000000
   O    106.59000000    43.27000000    97.06000000
   H    107.97000000    45.66000000    95.18000000
   H    109.47000000    43.62000000    96.46000000
   H    108.72000000    43.66000000    94.82000000
   N    107.72000000    41.58000000    96.04000000
   C    106.82000000    40.47000000    96.23000000
   C    107.50000000    39.24000000    96.83000000
   O    108.72000000    39.26000000    96.95000000
   C    106.23000000    40.10000000    94.87000000
   C    105.62000000    41.29000000    94.16000000
   C    104.26000000    41.59000000    94.31000000
   C    106.32000000    42.13000000    93.29000000
   C    103.63000000    42.69000000    93.73000000
   C    105.76000000    43.29000000    92.75000000
   C    104.38000000    43.54000000    92.89000000
   O    103.70000000    44.53000000    92.26000000
   H    108.61000000    41.28000000    95.67000000
   H    105.97000000    40.77000000    96.84000000
   H    105.45000000    39.35000000    94.99000000
   H    107.11000000    39.84000000    94.28000000
   H    103.61000000    40.97000000    94.91000000
   H    107.36000000    41.92000000    93.09000000
   H    102.57000000    42.91000000    93.79000000
   H    106.35000000    43.79000000    91.99000000
   H    104.33000000    44.98000000    91.69000000
   N    106.68000000    38.24000000    97.16000000
   C    107.19000000    36.91000000    97.45000000
   C    106.66000000    35.98000000    96.37000000
   O    107.31000000    34.96000000    96.16000000
   C    106.79000000    36.31000000    98.79000000
   C    107.70000000    36.72000000    99.95000000
   C    105.33000000    36.58000000    99.17000000
   C    109.18000000    36.36000000    99.90000000
   H    105.69000000    38.42000000    97.19000000
   H    108.27000000    36.82000000    97.42000000
   H    106.94000000    35.23000000    98.76000000
   H    107.34000000    36.38000000   100.92000000
   H    107.68000000    37.80000000   100.10000000
   H    105.19000000    37.66000000    99.21000000
   H    104.70000000    36.21000000    98.36000000
   H    105.11000000    36.16000000   100.15000000
   H    109.57000000    36.39000000   100.91000000
   H    109.24000000    35.41000000    99.38000000
   H    109.81000000    37.10000000    99.39000000
   N    105.64000000    36.38000000    95.61000000
   C    105.16000000    35.79000000    94.38000000
   C    104.21000000    34.60000000    94.36000000
   O    104.07000000    34.01000000    93.29000000
   C    104.64000000    36.90000000    93.48000000
   O    103.45000000    37.54000000    93.91000000
   H    105.15000000    37.23000000    95.88000000
   H    106.08000000    35.45000000    93.90000000
   H    104.37000000    36.37000000    92.56000000
   H    105.46000000    37.62000000    93.46000000
   H    103.55000000    37.89000000    94.80000000
   N    103.72000000    34.22000000    95.54000000
   C    102.82000000    33.09000000    95.70000000
   C    101.92000000    33.38000000    96.89000000
   O    102.34000000    33.71000000    98.00000000
   C    103.58000000    31.80000000    95.99000000
   H    103.99000000    34.75000000    96.35000000
   H    102.28000000    32.97000000    94.76000000
   H    104.43000000    32.12000000    96.58000000
   H    102.98000000    31.08000000    96.55000000
   H    103.87000000    31.32000000    95.05000000
   N    100.62000000    33.13000000    96.76000000
   C     99.58000000    33.17000000    97.77000000
   C     99.24000000    34.49000000    98.45000000
   O     98.41000000    34.65000000    99.35000000
   C     99.81000000    32.09000000    98.82000000
   H    100.35000000    32.95000000    95.80000000
   H     98.60000000    32.90000000    97.37000000
   H     99.02000000    32.04000000    99.57000000
   H     99.98000000    31.14000000    98.30000000
   H    100.77000000    32.39000000    99.24000000
   N     99.99000000    35.54000000    98.10000000
   C     99.69000000    36.88000000    98.56000000
   C     98.50000000    37.50000000    97.83000000
   O     97.58000000    38.07000000    98.41000000
   C    100.90000000    37.80000000    98.60000000
   C    101.43000000    38.11000000    97.20000000
   C    102.81000000    38.74000000    97.17000000
   O    102.95000000    39.70000000    97.97000000
   O    103.71000000    38.43000000    96.37000000
   H    100.59000000    35.35000000    97.32000000
   H     99.36000000    36.82000000    99.60000000
   H    101.72000000    37.36000000    99.17000000
   H    100.65000000    38.78000000    99.02000000
   H    100.69000000    38.81000000    96.80000000
   H    101.40000000    37.16000000    96.65000000
   N     98.42000000    37.25000000    96.52000000
   C     97.14000000    37.30000000    95.85000000
   H     96.43700000    37.87400000    96.45300000
   H     97.25700000    37.77700000    94.87700000
   H     96.76000000    36.28700000    95.71500000
   H     99.13000000    36.62000000    96.19000000
  Ca    102.11600000    43.99000000    99.31000000
   O    100.97600000    42.16000000    97.75000000
   H    100.04600000    42.02000000    97.56000000
   H    101.35600000    41.28000000    97.72000000
   O    104.05600000    42.31000000    98.77000000
   H    104.96600000    42.04000000    98.89000000
   H    103.61600000    41.53000000    98.43000000
   O    100.51600000    42.25000000   100.61600000
   H    101.03600000    41.88000000   101.32600000
   H     99.82600000    41.61000000   100.44600000
   O    102.82600000    44.31000000    96.72000000
   H    102.31600000    44.03000000    95.96000000
   H    103.42600000    44.97000000    96.37000000
   O    104.12600000    45.98000000    99.00000000
   H    104.21600000    46.91000000    99.19000000
   H    104.35600000    45.90000000    98.07000000
   O    101.52600000    46.53000000    98.09000000
   H    101.44600000    47.33000000    98.61000000
   H    102.06600000    46.79000000    97.35000000
   O    101.49600000    45.74000000   101.32600000
   H    101.02600000    45.32000000   102.04600000
   H    101.59600000    46.66000000   101.59600000
   O     99.53000000    44.64000000    98.52000000
   H     98.93000000    44.05000000    98.98000000
   H     98.96000000    45.19000000    97.98000000

Ca 1.00



