%chk=loop4.cluster62.chk
%nprocshared=20
%mem=10GB
%nosave
#b3lyp/svp scf=(tight,noincore,xqc) Test 
#IOP(5/87=12) Density=Current Pop=(MK,readradii) iop(6/33=2) iop(6/42=6)

loop4.cluster62 

   -3  1 
   C     66.45000000    57.69000000    44.97000000
   C     65.72000000    58.43000000    46.08000000
   O     64.91000000    59.33000000    45.90000000
   H     67.44500000    57.40800000    45.31500000
   H     65.89100000    56.79300000    44.70200000
   H     66.53900000    58.33800000    44.09800000
   N     66.07000000    58.20000000    47.35000000
   C     65.48000000    58.80000000    48.53000000
   C     66.16000000    60.13000000    48.79000000
   O     67.33000000    60.20000000    49.18000000
   C     65.60000000    57.91000000    49.77000000
   C     65.11000000    58.54000000    51.07000000
   O     64.08000000    59.23000000    51.07000000
   O     65.94000000    58.57000000    52.00000000
   H     66.64000000    57.39000000    47.54000000
   H     64.44000000    58.97000000    48.27000000
   H     66.63000000    57.58000000    49.86000000
   H     65.08000000    56.95000000    49.71000000
   N     65.49000000    61.26000000    48.56000000
   C     66.11000000    62.57000000    48.67000000
   C     66.03000000    63.12000000    50.09000000
   O     66.86000000    63.91000000    50.54000000
   C     65.41000000    63.46000000    47.65000000
   C     65.24000000    62.83000000    46.27000000
   C     66.04000000    64.84000000    47.51000000
   C     64.69000000    63.73000000    45.16000000
   H     64.54000000    61.22000000    48.24000000
   H     67.15000000    62.58000000    48.34000000
   H     64.38000000    63.58000000    47.99000000
   H     64.47000000    62.05000000    46.33000000
   H     66.17000000    62.42000000    45.87000000
   H     66.87000000    64.75000000    46.81000000
   H     65.35000000    65.61000000    47.16000000
   H     66.39000000    65.17000000    48.49000000
   H     64.91000000    63.25000000    44.21000000
   H     63.67000000    64.09000000    45.32000000
   H     65.32000000    64.60000000    45.06000000
   N     65.00000000    62.72000000    50.84000000
   C     64.81000000    63.26000000    52.18000000
   C     65.51000000    62.60000000    53.35000000
   O     66.13000000    63.27000000    54.17000000
   C     63.31000000    63.38000000    52.46000000
   C     62.45000000    62.18000000    52.12000000
   O     61.60000000    62.28000000    51.20000000
   O     62.61000000    61.11000000    52.75000000
   H     64.28000000    62.12000000    50.46000000
   H     65.11000000    64.30000000    52.14000000
   H     62.90000000    64.25000000    51.96000000
   H     63.12000000    63.51000000    53.52000000
   N     65.48000000    61.26000000    53.45000000
   C     66.07000000    60.52000000    54.54000000
   C     65.32000000    59.29000000    55.04000000
   O     65.85000000    58.50000000    55.81000000
   H     64.94000000    60.78000000    52.74000000
   H     66.14000000    61.21000000    55.37000000
   H     67.08000000    60.18000000    54.29000000
   N     64.03000000    59.15000000    54.73000000
   C     63.24000000    58.06000000    55.28000000
   C     63.51000000    56.63000000    54.82000000
   O     62.99000000    55.68000000    55.40000000
   C     61.74000000    58.31000000    55.13000000
   C     61.19000000    58.57000000    53.74000000
   O     60.18000000    59.26000000    53.49000000
   O     61.78000000    58.08000000    52.75000000
   H     63.66000000    59.69000000    53.96000000
   H     63.40000000    58.11000000    56.36000000
   H     61.61000000    59.26000000    55.66000000
   H     61.08000000    57.61000000    55.65000000
   N     64.43000000    56.46000000    53.87000000
   C     64.82000000    55.16000000    53.36000000
   C     63.82000000    54.52000000    52.39000000
   O     63.77000000    53.30000000    52.29000000
   H     64.78000000    57.29000000    53.41000000
   H     64.84000000    54.47000000    54.20000000
   H     65.78000000    55.28000000    52.86000000
   N     62.98000000    55.40000000    51.84000000
   C     61.82000000    55.03000000    51.06000000
   C     61.57000000    56.05000000    49.95000000
   O     61.79000000    57.25000000    50.09000000
   C     60.58000000    55.00000000    51.95000000
   C     60.58000000    54.08000000    53.17000000
   C     59.49000000    54.47000000    54.16000000
   N     59.25000000    53.66000000    55.20000000
   O     58.72000000    55.43000000    54.13000000
   H     63.16000000    56.39000000    51.84000000
   H     61.96000000    54.04000000    50.62000000
   H     59.79000000    54.56000000    51.34000000
   H     60.36000000    56.03000000    52.22000000
   H     61.58000000    54.17000000    53.60000000
   H     60.32000000    53.10000000    52.78000000
   H     59.56000000    52.71000000    55.04000000
   H     58.54000000    53.89000000    55.88000000
   N     61.14000000    55.60000000    48.77000000
   C     60.99000000    56.31000000    47.52000000
   C     59.52000000    56.31000000    47.13000000
   O     58.99000000    55.34000000    46.60000000
   C     61.79000000    55.66000000    46.39000000
   C     61.73000000    56.52000000    45.13000000
   C     63.26000000    55.52000000    46.76000000
   H     60.85000000    54.63000000    48.75000000
   H     61.40000000    57.30000000    47.68000000
   H     61.31000000    54.72000000    46.13000000
   H     62.13000000    57.49000000    45.43000000
   H     62.41000000    56.18000000    44.35000000
   H     60.70000000    56.69000000    44.84000000
   H     63.42000000    55.38000000    47.83000000
   H     63.66000000    54.72000000    46.13000000
   H     63.78000000    56.46000000    46.56000000
   N     58.88000000    57.48000000    47.21000000
   C     57.54000000    57.75000000    46.73000000
   C     57.56000000    58.37000000    45.34000000
   O     58.59000000    58.78000000    44.81000000
   C     56.77000000    58.63000000    47.70000000
   C     57.01000000    60.10000000    47.43000000
   N     58.14000000    60.63000000    47.92000000
   O     56.23000000    60.81000000    46.81000000
   H     59.36000000    58.26000000    47.64000000
   H     56.95000000    56.83000000    46.62000000
   H     57.08000000    58.49000000    48.74000000
   H     55.68000000    58.50000000    47.64000000
   H     58.92000000    60.06000000    48.21000000
   H     58.25000000    61.63000000    47.79000000
   N     56.42000000    58.41000000    44.66000000
   C     56.34000000    58.81000000    43.26000000
   C     56.91000000    60.19000000    42.97000000
   O     57.51000000    60.37000000    41.92000000
   C     54.91000000    58.60000000    42.77000000
   C     54.68000000    58.77000000    41.29000000
   C     55.15000000    57.91000000    40.29000000
   C     54.06000000    59.95000000    40.87000000
   C     54.93000000    58.11000000    38.92000000
   C     53.82000000    60.19000000    39.51000000
   C     54.13000000    59.21000000    38.55000000
   O     53.79000000    59.49000000    37.26000000
   H     55.57000000    58.10000000    45.10000000
   H     56.92000000    58.03000000    42.77000000
   H     54.32000000    59.36000000    43.28000000
   H     54.48000000    57.62000000    42.98000000
   H     55.85000000    57.12000000    40.54000000
   H     53.72000000    60.66000000    41.62000000
   H     55.25000000    57.42000000    38.16000000
   H     53.23000000    61.06000000    39.25000000
   H     53.24000000    60.27000000    37.30000000
   N     56.82000000    61.21000000    43.83000000
   C     57.38000000    62.53000000    43.66000000
   C     58.90000000    62.52000000    43.50000000
   O     59.41000000    63.00000000    42.49000000
   C     56.99000000    63.33000000    44.90000000
   C     57.16000000    64.83000000    44.66000000
   C     57.10000000    65.45000000    46.04000000
   O     55.98000000    65.71000000    46.52000000
   O     58.16000000    65.89000000    46.54000000
   H     56.48000000    60.97000000    44.75000000
   H     56.93000000    63.03000000    42.80000000
   H     57.66000000    63.03000000    45.71000000
   H     56.00000000    63.13000000    45.30000000
   H     56.49000000    65.21000000    43.89000000
   H     58.15000000    64.93000000    44.21000000
   N     59.63000000    61.83000000    44.38000000
   C     61.03000000    61.47000000    44.23000000
   C     61.29000000    60.63000000    42.99000000
   O     62.21000000    60.93000000    42.24000000
   C     61.49000000    60.79000000    45.52000000
   C     61.34000000    61.52000000    46.85000000
   C     61.65000000    60.67000000    48.07000000
   O     62.67000000    60.90000000    48.75000000
   O     60.81000000    59.80000000    48.40000000
   H     59.21000000    61.20000000    45.05000000
   H     61.55000000    62.43000000    44.20000000
   H     62.49000000    60.38000000    45.44000000
   H     60.81000000    59.95000000    45.63000000
   H     60.30000000    61.84000000    46.93000000
   H     62.02000000    62.37000000    46.95000000
   N     60.37000000    59.72000000    42.69000000
   C     60.65000000    58.69000000    41.70000000
   H     61.66800000    58.32500000    41.83500000
   H     59.94900000    57.86500000    41.82500000
   H     60.54400000    59.10900000    40.69900000
   H     59.46000000    59.67000000    43.13000000
  Ca     61.49000000    59.70000000    50.90000000
   O     58.94000000    58.08000000    50.43000000
   H     58.70000000    57.31000000    50.94000000
   H     58.12000000    58.56000000    50.30000000
   O     59.05000000    60.88000000    51.04000000
   H     58.49000000    61.65000000    50.96000000
   H     58.54000000    60.26000000    51.55000000

Ca 1.00



