%chk=loop3.cluster98.chk
%nprocshared=20
%mem=10GB
%nosave
#b3lyp/svp scf=(tight,noincore,xqc) Test 
#IOP(5/87=12) Density=Current Pop=(MK,readradii) iop(6/33=2) iop(6/42=6)

loop3.cluster98 

   0  1 
   C     50.94000000    18.13000000     4.12000000
   C     50.75000000    19.27000000     3.13000000
   O     51.23000000    20.39000000     3.32000000
   H     51.71600000    18.39800000     4.83700000
   H     50.00400000    17.94700000     4.64900000
   H     51.23700000    17.22900000     3.58400000
   N     50.19000000    18.92000000     1.97000000
   C     50.16000000    19.62000000     0.70000000
   C     49.25000000    20.82000000     0.48000000
   O     49.38000000    21.55000000    -0.50000000
   C     51.54000000    19.79000000     0.08000000
   C     52.34000000    18.50000000     0.01000000
   O     51.87000000    17.35000000     0.13000000
   O     53.53000000    18.64000000    -0.34000000
   H     49.78000000    18.00000000     1.93000000
   H     49.70000000    18.93000000     0.00000000
   H     52.11000000    20.46000000     0.72000000
   H     51.48000000    20.22000000    -0.92000000
   N     48.22000000    21.02000000     1.31000000
   C     47.19000000    22.02000000     1.16000000
   C     47.48000000    23.36000000     1.82000000
   O     47.18000000    24.36000000     1.17000000
   C     45.81000000    21.48000000     1.53000000
   C     44.63000000    22.35000000     1.11000000
   C     43.24000000    21.81000000     1.41000000
   C     42.12000000    22.81000000     1.12000000
   N     42.16000000    23.04000000    -0.33000000
   H     48.11000000    20.46000000     2.14000000
   H     47.11000000    22.18000000     0.08000000
   H     45.78000000    21.17000000     2.57000000
   H     45.65000000    20.56000000     0.97000000
   H     44.74000000    22.50000000     0.03000000
   H     44.76000000    23.25000000     1.71000000
   H     43.10000000    21.63000000     2.48000000
   H     43.09000000    20.79000000     1.04000000
   H     42.25000000    23.75000000     1.64000000
   H     41.20000000    22.35000000     1.47000000
   H     43.04000000    23.39000000    -0.69000000
   H     42.08000000    22.15000000    -0.80000000
   H     41.41000000    23.62000000    -0.67000000
   N     48.05000000    23.39000000     3.03000000
   C     47.93000000    24.57000000     3.86000000
   C     49.09000000    24.57000000     4.85000000
   O     49.42000000    23.55000000     5.45000000
   C     46.63000000    24.44000000     4.65000000
   C     46.29000000    25.73000000     5.38000000
   O     45.27000000    25.79000000     6.09000000
   O     47.09000000    26.69000000     5.37000000
   H     48.31000000    22.54000000     3.50000000
   H     47.93000000    25.50000000     3.30000000
   H     46.63000000    23.58000000     5.32000000
   H     45.88000000    24.32000000     3.87000000
   N     49.63000000    25.77000000     5.12000000
   C     50.71000000    25.93000000     6.07000000
   C     50.80000000    27.38000000     6.54000000
   O     49.76000000    28.03000000     6.63000000
   H     49.30000000    26.59000000     4.64000000
   H     51.64000000    25.60000000     5.61000000
   H     50.47000000    25.33000000     6.94000000
   N     52.01000000    27.92000000     6.65000000
   C     52.25000000    29.26000000     7.14000000
   C     52.90000000    30.15000000     6.08000000
   O     53.30000000    31.26000000     6.41000000
   C     53.00000000    29.24000000     8.47000000
   C     52.21000000    28.46000000     9.52000000
   N     51.70000000    29.16000000    10.53000000
   O     51.84000000    27.31000000     9.32000000
   H     52.78000000    27.27000000     6.55000000
   H     51.30000000    29.79000000     7.26000000
   H     53.27000000    30.26000000     8.74000000
   H     53.95000000    28.73000000     8.29000000
   H     51.72000000    30.17000000    10.48000000
   H     51.13000000    28.63000000    11.18000000
   N     53.00000000    29.75000000     4.81000000
   C     53.70000000    30.52000000     3.80000000
   C     55.18000000    30.16000000     3.82000000
   O     55.47000000    28.97000000     3.96000000
   H     52.65000000    28.83000000     4.59000000
   H     53.59000000    31.60000000     3.88000000
   H     53.26000000    30.24000000     2.85000000
   N     56.06000000    31.16000000     3.72000000
   C     57.45000000    31.21000000     4.11000000
   C     57.72000000    30.93000000     5.59000000
   O     58.69000000    31.45000000     6.14000000
   C     58.33000000    30.32000000     3.24000000
   C     59.82000000    30.58000000     3.33000000
   C     60.67000000    29.76000000     4.08000000
   C     60.41000000    31.53000000     2.49000000
   C     62.05000000    29.96000000     4.06000000
   C     61.79000000    31.73000000     2.39000000
   C     62.61000000    30.93000000     3.21000000
   O     63.96000000    31.12000000     3.17000000
   H     55.67000000    32.09000000     3.62000000
   H     57.75000000    32.22000000     3.86000000
   H     58.15000000    30.41000000     2.17000000
   H     58.12000000    29.28000000     3.49000000
   H     60.23000000    29.16000000     4.87000000
   H     59.78000000    32.13000000     1.84000000
   H     62.67000000    29.27000000     4.62000000
   H     62.11000000    32.52000000     1.72000000
   H     64.12000000    31.88000000     2.61000000
   N     56.80000000    30.31000000     6.32000000
   C     56.44000000    30.56000000     7.70000000
   C     56.28000000    32.01000000     8.15000000
   O     55.17000000    32.46000000     8.43000000
   C     57.30000000    29.74000000     8.66000000
   C     57.35000000    28.25000000     8.37000000
   C     56.78000000    29.80000000    10.09000000
   C     58.48000000    27.81000000     7.44000000
   H     56.02000000    29.92000000     5.80000000
   H     55.43000000    30.19000000     7.89000000
   H     58.35000000    30.05000000     8.68000000
   H     56.38000000    27.98000000     7.94000000
   H     57.56000000    27.64000000     9.25000000
   H     56.61000000    30.85000000    10.32000000
   H     56.04000000    29.01000000    10.23000000
   H     57.58000000    29.43000000    10.73000000
   H     59.45000000    28.09000000     7.84000000
   H     58.39000000    26.73000000     7.31000000
   H     58.27000000    28.35000000     6.51000000
   N     57.41000000    32.72000000     8.21000000
   C     57.47000000    34.14000000     8.49000000
   C     56.83000000    34.64000000     9.78000000
   O     56.52000000    35.81000000     9.96000000
   C     58.92000000    34.61000000     8.39000000
   O     59.58000000    34.61000000     7.15000000
   H     58.26000000    32.20000000     8.04000000
   H     56.90000000    34.56000000     7.66000000
   H     59.49000000    33.92000000     9.01000000
   H     58.95000000    35.61000000     8.83000000
   H     60.21000000    35.34000000     7.18000000
   N     56.58000000    33.70000000    10.70000000
   C     55.74000000    33.85000000    11.87000000
   C     54.31000000    34.32000000    11.64000000
   O     53.77000000    34.93000000    12.56000000
   C     56.50000000    34.50000000    13.02000000
   H     56.97000000    32.79000000    10.52000000
   H     55.63000000    32.83000000    12.24000000
   H     55.87000000    34.42000000    13.91000000
   H     57.29000000    33.80000000    13.29000000
   H     56.73000000    35.55000000    12.84000000
   N     53.76000000    34.02000000    10.46000000
   C     52.37000000    34.29000000    10.20000000
   C     51.46000000    33.09000000    10.44000000
   O     51.88000000    31.93000000    10.42000000
   C     52.40000000    34.61000000     8.71000000
   H     54.33000000    33.67000000     9.70000000
   H     52.00000000    35.15000000    10.75000000
   H     51.37000000    34.75000000     8.36000000
   H     52.92000000    35.56000000     8.59000000
   H     52.83000000    33.80000000     8.12000000
   N     50.16000000    33.29000000    10.69000000
   C     49.18000000    32.25000000    10.87000000
   C     49.42000000    31.28000000    12.02000000
   O     48.83000000    30.20000000    11.93000000
   C     48.91000000    31.54000000     9.54000000
   C     48.81000000    32.42000000     8.30000000
   C     48.39000000    31.55000000     7.12000000
   O     49.30000000    31.20000000     6.34000000
   O     47.22000000    31.13000000     7.01000000
   H     49.80000000    34.21000000    10.49000000
   H     48.24000000    32.76000000    11.09000000
   H     47.92000000    31.09000000     9.54000000
   H     49.68000000    30.79000000     9.33000000
   H     49.72000000    32.96000000     8.06000000
   H     48.08000000    33.20000000     8.54000000
   N     50.29000000    31.57000000    12.99000000
   C     51.06000000    30.63000000    13.78000000
   H     51.97600000    31.11000000    14.12500000
   H     50.47200000    30.31000000    14.64000000
   H     51.31300000    29.76300000    13.17000000
   H     50.73000000    32.46000000    12.83000000
  Ca     47.55000000    29.06000000     5.56000000
   O     45.91000000    31.02000000     4.60000000
   H     45.53000000    31.50000000     3.86000000
   H     45.32000000    31.19000000     5.33000000
   O     49.53000000    28.12000000     3.51000000
   H     50.47000000    28.14000000     3.34000000
   H     49.13000000    28.28000000     2.66000000
   O     46.38000000    28.50000000     2.95000000
   H     46.23000000    29.30000000     2.44000000
   H     46.33000000    27.79000000     2.30000000
   O     44.79000000    28.60000000     6.25000000
   H     44.72000000    27.64000000     6.18000000
   H     43.97000000    28.88000000     6.65000000
   O     47.39000000    28.15000000     8.02000000
   H     46.57000000    27.85000000     8.39000000
   H     48.07000000    27.68000000     8.51000000
   O     48.86000000    31.14000000     3.79000000
   H     49.42000000    31.42000000     4.51000000
   H     48.11000000    31.73000000     3.83000000

Ca 1.00



