%chk=loop2.cluster200.chk
%nprocshared=20
%mem=10GB
%nosave
#b3lyp/svp scf=(tight,noincore,xqc) Test 
#IOP(5/87=12) Density=Current Pop=(MK,readradii) iop(6/33=2) iop(6/42=6)

loop2.cluster200 

   -2  1 
   C     58.69000000    47.86000000    18.76000000
   C     59.81000000    47.78000000    17.74000000
   O     59.85000000    46.86000000    16.91000000
   H     57.79000000    47.40500000    18.34700000
   H     58.98300000    47.32800000    19.66500000
   H     58.49100000    48.90400000    19.00100000
   N     60.81000000    48.65000000    17.89000000
   C     62.01000000    48.58000000    17.09000000
   C     61.87000000    49.40000000    15.81000000
   O     61.90000000    50.63000000    15.83000000
   C     63.10000000    49.16000000    17.98000000
   C     64.47000000    49.26000000    17.32000000
   O     64.75000000    48.51000000    16.36000000
   O     65.35000000    49.94000000    17.88000000
   H     60.65000000    49.35000000    18.60000000
   H     62.25000000    47.54000000    16.86000000
   H     63.28000000    48.42000000    18.76000000
   H     62.77000000    50.15000000    18.28000000
   N     61.75000000    48.74000000    14.65000000
   C     61.46000000    49.48000000    13.44000000
   C     59.95000000    49.68000000    13.33000000
   O     59.21000000    48.77000000    13.70000000
   C     62.07000000    48.68000000    12.29000000
   H     61.70000000    47.73000000    14.61000000
   H     61.91000000    50.47000000    13.45000000
   H     61.65000000    47.70000000    12.10000000
   H     62.08000000    49.31000000    11.40000000
   H     63.11000000    48.47000000    12.57000000
   N     59.44000000    50.77000000    12.76000000
   C     60.14000000    51.94000000    12.28000000
   C     60.27000000    53.09000000    13.28000000
   O     59.72000000    53.00000000    14.37000000
   C     59.49000000    52.43000000    10.99000000
   C     58.01000000    52.60000000    11.30000000
   O     57.61000000    53.42000000    12.15000000
   O     57.15000000    51.94000000    10.68000000
   H     58.43000000    50.83000000    12.77000000
   H     61.17000000    51.73000000    12.00000000
   H     59.53000000    51.73000000    10.15000000
   H     60.02000000    53.31000000    10.64000000
   N     61.11000000    54.08000000    12.97000000
   C     61.44000000    55.22000000    13.81000000
   C     61.26000000    56.54000000    13.08000000
   O     62.23000000    57.03000000    12.51000000
   H     61.56000000    54.07000000    12.07000000
   H     62.49000000    55.13000000    14.11000000
   H     60.94000000    55.30000000    14.78000000
   N     60.03000000    57.06000000    13.03000000
   C     58.79000000    56.36000000    13.25000000
   C     58.40000000    56.45000000    14.72000000
   O     58.32000000    57.50000000    15.34000000
   C     57.74000000    56.84000000    12.25000000
   C     58.25000000    56.84000000    10.82000000
   N     58.21000000    55.65000000    10.20000000
   O     58.74000000    57.79000000    10.21000000
   H     59.98000000    57.99000000    12.63000000
   H     58.84000000    55.32000000    12.92000000
   H     57.33000000    57.83000000    12.44000000
   H     56.89000000    56.17000000    12.36000000
   H     57.81000000    54.82000000    10.60000000
   H     58.41000000    55.62000000     9.21000000
   N     58.04000000    55.31000000    15.32000000
   C     57.80000000    55.24000000    16.75000000
   C     56.35000000    55.18000000    17.22000000
   O     56.11000000    55.59000000    18.36000000
   H     58.10000000    54.47000000    14.77000000
   H     58.36000000    56.03000000    17.24000000
   H     58.33000000    54.32000000    16.99000000
   N     55.44000000    54.85000000    16.31000000
   C     54.03000000    54.68000000    16.62000000
   C     53.42000000    53.45000000    15.97000000
   O     53.72000000    53.17000000    14.81000000
   C     53.18000000    55.89000000    16.26000000
   C     53.33000000    56.97000000    17.33000000
   O     53.48000000    56.50000000    15.03000000
   H     55.67000000    54.65000000    15.35000000
   H     53.88000000    54.53000000    17.69000000
   H     52.12000000    55.63000000    16.30000000
   H     53.98000000    57.28000000    15.25000000
   H     53.33000000    56.46000000    18.29000000
   H     54.30000000    57.46000000    17.32000000
   H     52.42000000    57.57000000    17.32000000
   N     52.72000000    52.63000000    16.76000000
   C     52.32000000    51.32000000    16.27000000
   C     51.35000000    51.40000000    15.10000000
   O     50.40000000    52.17000000    15.14000000
   C     51.86000000    50.35000000    17.36000000
   C     52.94000000    49.85000000    18.30000000
   C     50.55000000    50.71000000    18.06000000
   C     53.13000000    50.73000000    19.54000000
   H     52.60000000    52.82000000    17.74000000
   H     53.23000000    50.90000000    15.84000000
   H     51.47000000    49.52000000    16.77000000
   H     53.90000000    49.82000000    17.79000000
   H     52.69000000    48.86000000    18.67000000
   H     50.72000000    51.55000000    18.73000000
   H     49.72000000    50.81000000    17.37000000
   H     50.22000000    49.88000000    18.69000000
   H     53.57000000    51.72000000    19.42000000
   H     52.27000000    50.90000000    20.19000000
   H     53.83000000    50.21000000    20.20000000
   N     51.57000000    50.66000000    14.01000000
   C     50.66000000    50.47000000    12.91000000
   C     50.85000000    49.16000000    12.15000000
   O     51.95000000    48.65000000    11.99000000
   C     50.70000000    51.64000000    11.93000000
   C     52.12000000    52.10000000    11.64000000
   O     52.49000000    53.23000000    12.04000000
   O     53.00000000    51.34000000    11.18000000
   H     52.45000000    50.17000000    13.96000000
   H     49.64000000    50.44000000    13.30000000
   H     50.11000000    52.45000000    12.36000000
   H     50.24000000    51.29000000    11.00000000
   N     49.77000000    48.56000000    11.64000000
   C     49.74000000    47.28000000    10.96000000
   C     50.27000000    46.20000000    11.88000000
   O     49.68000000    45.84000000    12.90000000
   C     48.27000000    47.01000000    10.64000000
   C     48.02000000    45.80000000     9.76000000
   C     47.62000000    44.58000000    10.33000000
   C     48.05000000    45.90000000     8.37000000
   C     47.33000000    43.45000000     9.55000000
   C     47.82000000    44.76000000     7.58000000
   C     47.45000000    43.54000000     8.16000000
   H     48.89000000    49.03000000    11.80000000
   H     50.37000000    47.29000000    10.07000000
   H     47.92000000    47.86000000    10.05000000
   H     47.71000000    46.93000000    11.57000000
   H     47.57000000    44.55000000    11.40000000
   H     48.32000000    46.83000000     7.89000000
   H     47.08000000    42.52000000    10.03000000
   H     47.70000000    44.93000000     6.52000000
   H     47.34000000    42.64000000     7.58000000
   N     51.44000000    45.64000000    11.56000000
   C     51.93000000    44.55000000    12.39000000
   C     52.61000000    44.90000000    13.71000000
   O     52.96000000    44.01000000    14.47000000
   C     52.98000000    43.86000000    11.52000000
   C     53.56000000    44.96000000    10.63000000
   C     52.25000000    45.70000000    10.36000000
   H     51.23000000    43.74000000    12.59000000
   H     53.71000000    43.32000000    12.13000000
   H     52.47000000    43.10000000    10.93000000
   H     54.28000000    45.62000000    11.10000000
   H     53.96000000    44.49000000     9.73000000
   H     52.42000000    46.76000000    10.17000000
   H     51.69000000    45.27000000     9.53000000
   N     52.90000000    46.18000000    13.98000000
   C     53.78000000    46.62000000    15.05000000
   C     53.17000000    46.21000000    16.38000000
   O     53.81000000    45.57000000    17.21000000
   C     54.06000000    48.11000000    14.90000000
   C     55.10000000    48.35000000    13.81000000
   C     55.29000000    49.80000000    13.38000000
   O     55.03000000    50.72000000    14.19000000
   O     55.67000000    50.11000000    12.23000000
   H     52.69000000    46.87000000    13.28000000
   H     54.73000000    46.09000000    15.00000000
   H     54.46000000    48.45000000    15.85000000
   H     53.10000000    48.60000000    14.71000000
   H     54.73000000    47.84000000    12.92000000
   H     56.11000000    47.98000000    14.00000000
   N     51.88000000    46.47000000    16.58000000
   C     51.08000000    45.89000000    17.63000000
   H     50.10200000    45.61900000    17.23300000
   H     51.57500000    44.99900000    18.01500000
   H     50.95700000    46.61400000    18.43500000
   H     51.35000000    46.94000000    15.85000000
  Ca     55.14000000    52.68000000    12.38000000
   O     56.51000000    52.63000000    15.24000000
   H     55.80000000    51.99000000    15.22000000
   H     57.24000000    52.17000000    15.66000000
   O     55.16000000    53.98000000    10.05000000
   H     55.65000000    53.90000000     9.24000000
   H     54.40000000    54.51000000     9.83000000
   O     54.61000000    55.29000000    12.75000000
   H     54.14000000    55.72000000    13.47000000
   H     54.37000000    55.80000000    11.98000000

Ca 1.00



