%chk=loop2.cluster187.chk
%nprocshared=20
%mem=10GB
%nosave
#b3lyp/svp scf=(tight,noincore,xqc) Test 
#IOP(5/87=12) Density=Current Pop=(MK,readradii) iop(6/33=2) iop(6/42=6)

loop2.cluster187 

   -2  1 
   C     61.26000000    58.28000000    10.40000000
   C     60.00000000    58.50000000    11.21000000
   O     60.01000000    59.13000000    12.27000000
   H     62.08200000    58.02600000    11.06900000
   H     61.10200000    57.46400000     9.69500000
   H     61.50500000    59.19100000     9.85400000
   N     58.86000000    58.03000000    10.71000000
   C     57.52000000    58.42000000    11.09000000
   C     57.18000000    57.66000000    12.37000000
   O     56.95000000    56.46000000    12.28000000
   C     56.44000000    58.27000000    10.02000000
   C     55.04000000    58.58000000    10.52000000
   O     54.04000000    58.45000000     9.79000000
   O     54.82000000    59.08000000    11.65000000
   H     58.98000000    57.49000000     9.86000000
   H     57.62000000    59.48000000    11.32000000
   H     56.42000000    57.26000000     9.61000000
   H     56.63000000    58.94000000     9.18000000
   N     57.21000000    58.38000000    13.50000000
   C     57.17000000    57.78000000    14.82000000
   C     55.82000000    57.17000000    15.14000000
   O     55.76000000    56.14000000    15.80000000
   C     57.60000000    58.82000000    15.84000000
   H     57.52000000    59.34000000    13.53000000
   H     57.91000000    56.98000000    14.88000000
   H     58.62000000    59.10000000    15.56000000
   H     56.86000000    59.62000000    15.93000000
   H     57.64000000    58.42000000    16.85000000
   N     54.71000000    57.77000000    14.69000000
   C     53.39000000    57.20000000    14.79000000
   C     53.24000000    56.08000000    13.77000000
   O     52.59000000    55.07000000    14.04000000
   C     52.29000000    58.24000000    14.59000000
   C     52.58000000    59.62000000    15.17000000
   O     53.16000000    60.43000000    14.42000000
   O     52.42000000    59.84000000    16.39000000
   H     54.91000000    58.58000000    14.12000000
   H     53.33000000    56.75000000    15.78000000
   H     51.34000000    57.86000000    14.97000000
   H     52.13000000    58.45000000    13.54000000
   N     53.90000000    56.23000000    12.62000000
   C     54.06000000    55.25000000    11.56000000
   C     52.89000000    55.08000000    10.60000000
   O     52.85000000    54.15000000     9.79000000
   H     54.41000000    57.09000000    12.49000000
   H     54.19000000    54.27000000    12.01000000
   H     54.94000000    55.56000000    10.99000000
   N     52.02000000    56.09000000    10.55000000
   C     50.80000000    56.00000000     9.78000000
   C     50.81000000    56.81000000     8.50000000
   O     49.86000000    56.72000000     7.72000000
   C     49.59000000    56.30000000    10.66000000
   C     49.44000000    57.74000000    11.14000000
   N     48.27000000    58.17000000    11.62000000
   O     50.42000000    58.48000000    11.14000000
   H     52.18000000    56.90000000    11.14000000
   H     50.67000000    54.95000000     9.51000000
   H     49.44000000    55.63000000    11.51000000
   H     48.77000000    56.05000000     9.98000000
   H     47.43000000    57.63000000    11.53000000
   H     48.24000000    59.15000000    11.85000000
   N     51.89000000    57.52000000     8.17000000
   C     52.24000000    57.96000000     6.84000000
   C     52.31000000    59.47000000     6.61000000
   O     51.91000000    60.03000000     5.59000000
   H     52.59000000    57.64000000     8.90000000
   H     51.46000000    57.66000000     6.14000000
   H     53.16000000    57.48000000     6.53000000
   N     52.68000000    60.24000000     7.63000000
   C     52.83000000    61.68000000     7.61000000
   C     53.96000000    62.18000000     8.49000000
   O     54.21000000    61.63000000     9.56000000
   C     51.55000000    62.29000000     8.18000000
   C     50.51000000    62.64000000     7.13000000
   O     50.84000000    61.56000000     9.15000000
   H     52.92000000    59.72000000     8.47000000
   H     53.08000000    61.95000000     6.58000000
   H     51.80000000    63.25000000     8.63000000
   H     51.48000000    61.34000000     9.84000000
   H     49.51000000    62.94000000     7.46000000
   H     50.80000000    63.51000000     6.54000000
   H     50.40000000    61.80000000     6.45000000
   N     54.70000000    63.18000000     7.99000000
   C     55.88000000    63.73000000     8.61000000
   C     55.50000000    64.95000000     9.43000000
   O     54.89000000    65.91000000     8.96000000
   C     56.85000000    64.02000000     7.47000000
   C     57.31000000    62.84000000     6.61000000
   C     58.13000000    64.63000000     8.03000000
   C     57.81000000    61.61000000     7.37000000
   H     54.38000000    63.60000000     7.13000000
   H     56.32000000    62.94000000     9.22000000
   H     56.47000000    64.82000000     6.84000000
   H     58.02000000    63.25000000     5.90000000
   H     56.47000000    62.49000000     6.02000000
   H     58.70000000    63.91000000     8.62000000
   H     58.73000000    64.91000000     7.16000000
   H     57.91000000    65.58000000     8.52000000
   H     58.33000000    60.86000000     6.78000000
   H     58.57000000    61.92000000     8.09000000
   H     56.92000000    61.16000000     7.81000000
   N     55.89000000    64.92000000    10.70000000
   C     56.00000000    66.05000000    11.60000000
   C     57.30000000    66.81000000    11.38000000
   O     58.24000000    66.11000000    11.02000000
   C     55.82000000    65.65000000    13.06000000
   C     54.61000000    64.74000000    13.21000000
   O     54.75000000    63.60000000    13.70000000
   O     53.45000000    65.14000000    12.93000000
   H     56.43000000    64.09000000    10.90000000
   H     55.18000000    66.71000000    11.34000000
   H     55.66000000    66.53000000    13.68000000
   H     56.77000000    65.17000000    13.34000000
   N     57.48000000    68.10000000    11.69000000
   C     58.78000000    68.69000000    11.48000000
   C     60.00000000    67.98000000    12.06000000
   O     61.02000000    67.95000000    11.37000000
   C     58.73000000    70.15000000    11.93000000
   C     59.95000000    71.00000000    11.67000000
   C     60.47000000    71.06000000    10.38000000
   C     60.68000000    71.57000000    12.72000000
   C     61.61000000    71.80000000    10.04000000
   C     61.85000000    72.27000000    12.38000000
   C     62.35000000    72.38000000    11.08000000
   H     56.72000000    68.70000000    11.99000000
   H     59.01000000    68.59000000    10.42000000
   H     58.48000000    70.24000000    12.98000000
   H     57.90000000    70.66000000    11.43000000
   H     59.95000000    70.56000000     9.57000000
   H     60.30000000    71.58000000    13.73000000
   H     61.97000000    71.91000000     9.03000000
   H     62.47000000    72.71000000    13.15000000
   H     63.30000000    72.87000000    10.88000000
   N     59.99000000    67.42000000    13.27000000
   C     61.19000000    66.81000000    13.83000000
   C     61.36000000    65.44000000    13.20000000
   O     62.45000000    64.90000000    13.36000000
   C     61.04000000    66.75000000    15.35000000
   C     59.52000000    66.64000000    15.42000000
   C     59.06000000    67.63000000    14.35000000
   H     62.07000000    67.40000000    13.57000000
   H     61.41000000    65.79000000    15.71000000
   H     61.35000000    67.68000000    15.83000000
   H     59.08000000    65.65000000    15.29000000
   H     59.20000000    66.99000000    16.40000000
   H     58.04000000    67.48000000    14.00000000
   H     59.19000000    68.68000000    14.64000000
   N     60.39000000    64.83000000    12.51000000
   C     60.67000000    63.67000000    11.69000000
   C     61.36000000    64.02000000    10.38000000
   O     62.30000000    63.36000000     9.93000000
   C     59.37000000    62.90000000    11.52000000
   C     58.71000000    62.29000000    12.76000000
   C     57.24000000    61.98000000    12.52000000
   O     56.48000000    62.42000000    11.63000000
   O     56.72000000    61.20000000    13.35000000
   H     59.54000000    65.34000000    12.34000000
   H     61.45000000    63.05000000    12.14000000
   H     59.49000000    62.13000000    10.76000000
   H     58.64000000    63.64000000    11.19000000
   H     58.77000000    63.06000000    13.53000000
   H     59.26000000    61.42000000    13.11000000
   N     61.01000000    65.20000000     9.87000000
   C     61.50000000    65.74000000     8.63000000
   H     62.52200000    65.39900000     8.46400000
   H     60.86700000    65.40100000     7.81000000
   H     61.48400000    66.82900000     8.67600000
   H     60.31000000    65.70000000    10.40000000
  Ca     54.23000000    61.51000000    12.32000000
   O     52.41000000    63.42000000    11.31000000
   H     51.64000000    63.09000000    11.77000000
   H     52.64000000    64.22000000    11.78000000
   O     52.37000000    60.34000000    10.97000000
   H     51.62000000    59.82000000    11.30000000
   H     52.97000000    59.69000000    10.62000000
   O     51.16000000    61.99000000    13.26000000
   H     50.38000000    62.14000000    13.79000000
   H     51.75000000    61.52000000    13.83000000

Ca 1.00



