%chk=loop4.cluster87.chk
%nprocshared=20
%mem=10GB
%nosave
#b3lyp/svp scf=(tight,noincore,xqc) Test 
#IOP(5/87=12) Density=Current Pop=(MK,readradii) iop(6/33=2) iop(6/42=6)

loop4.cluster87 

   -3  1 
   C     77.93000000    35.79000000    68.44000000
   C     78.85000000    34.92000000    69.27000000
   O     80.04000000    34.83000000    68.98000000
   H     77.03500000    36.02400000    69.01600000
   H     78.44400000    36.71400000    68.17600000
   H     77.64800000    35.25800000    67.53100000
   N     78.30000000    34.36000000    70.35000000
   C     78.94000000    33.75000000    71.49000000
   C     79.86000000    34.67000000    72.28000000
   O     80.83000000    34.14000000    72.82000000
   C     79.56000000    32.40000000    71.11000000
   C     78.65000000    31.25000000    70.71000000
   O     78.30000000    31.20000000    69.51000000
   O     78.47000000    30.36000000    71.57000000
   H     77.29000000    34.41000000    70.33000000
   H     78.20000000    33.44000000    72.22000000
   H     80.19000000    32.02000000    71.91000000
   H     80.27000000    32.62000000    70.32000000
   N     79.61000000    35.98000000    72.32000000
   C     80.40000000    36.87000000    73.14000000
   C     79.67000000    37.31000000    74.40000000
   O     78.53000000    37.77000000    74.36000000
   C     80.85000000    37.99000000    72.20000000
   C     81.49000000    37.65000000    70.86000000
   C     81.76000000    38.96000000    72.96000000
   C     82.69000000    36.73000000    71.02000000
   H     78.82000000    36.32000000    71.80000000
   H     81.33000000    36.38000000    73.43000000
   H     80.00000000    38.61000000    71.90000000
   H     81.79000000    38.57000000    70.35000000
   H     80.83000000    37.02000000    70.27000000
   H     81.86000000    39.87000000    72.38000000
   H     81.19000000    39.24000000    73.84000000
   H     82.63000000    38.48000000    73.40000000
   H     83.44000000    37.21000000    71.66000000
   H     82.42000000    35.74000000    71.38000000
   H     83.21000000    36.64000000    70.07000000
   N     80.20000000    37.19000000    75.62000000
   C     81.55000000    36.74000000    75.92000000
   C     81.72000000    35.23000000    75.90000000
   O     82.80000000    34.66000000    75.83000000
   C     82.07000000    37.36000000    77.21000000
   C     81.69000000    38.77000000    77.63000000
   O     81.15000000    38.92000000    78.75000000
   O     81.83000000    39.70000000    76.81000000
   H     79.70000000    37.70000000    76.33000000
   H     82.27000000    36.97000000    75.14000000
   H     83.15000000    37.45000000    77.20000000
   H     81.75000000    36.73000000    78.04000000
   N     80.64000000    34.46000000    76.07000000
   C     80.56000000    33.01000000    76.12000000
   C     81.48000000    32.43000000    77.18000000
   O     81.60000000    32.93000000    78.30000000
   H     79.79000000    34.99000000    76.17000000
   H     80.76000000    32.60000000    75.12000000
   H     79.57000000    32.71000000    76.45000000
   N     82.14000000    31.35000000    76.77000000
   C     83.35000000    30.94000000    77.45000000
   C     84.57000000    31.74000000    77.00000000
   O     85.61000000    31.55000000    77.62000000
   C     83.67000000    29.45000000    77.35000000
   C     83.49000000    28.78000000    76.00000000
   O     82.95000000    27.65000000    76.02000000
   O     83.87000000    29.32000000    74.94000000
   H     82.04000000    31.05000000    75.81000000
   H     83.15000000    31.19000000    78.49000000
   H     83.02000000    28.90000000    78.03000000
   H     84.64000000    29.29000000    77.83000000
   N     84.50000000    32.51000000    75.91000000
   C     85.63000000    33.07000000    75.20000000
   C     86.39000000    32.19000000    74.22000000
   O     87.56000000    32.46000000    73.93000000
   H     83.60000000    32.85000000    75.62000000
   H     86.32000000    33.53000000    75.90000000
   H     85.19000000    33.91000000    74.65000000
   N     85.76000000    31.14000000    73.70000000
   C     86.31000000    30.20000000    72.74000000
   C     86.74000000    30.81000000    71.42000000
   O     87.79000000    30.49000000    70.88000000
   C     87.39000000    29.32000000    73.37000000
   C     86.98000000    28.62000000    74.66000000
   C     87.95000000    27.50000000    74.99000000
   N     87.54000000    26.50000000    75.77000000
   O     89.03000000    27.38000000    74.41000000
   H     84.81000000    31.00000000    74.01000000
   H     85.49000000    29.56000000    72.42000000
   H     88.27000000    29.93000000    73.60000000
   H     87.63000000    28.59000000    72.60000000
   H     86.04000000    28.09000000    74.48000000
   H     86.85000000    29.23000000    75.56000000
   H     86.76000000    26.68000000    76.37000000
   H     88.22000000    25.80000000    76.05000000
   N     85.88000000    31.64000000    70.83000000
   C     85.96000000    32.12000000    69.46000000
   C     85.80000000    31.05000000    68.39000000
   O     84.90000000    30.21000000    68.48000000
   C     85.01000000    33.28000000    69.18000000
   C     83.55000000    33.17000000    69.61000000
   C     85.50000000    34.57000000    69.84000000
   H     84.97000000    31.79000000    71.24000000
   H     86.99000000    32.44000000    69.32000000
   H     85.08000000    33.52000000    68.12000000
   H     83.10000000    32.25000000    69.27000000
   H     83.50000000    33.10000000    70.69000000
   H     83.00000000    34.04000000    69.23000000
   H     86.58000000    34.56000000    69.91000000
   H     85.11000000    35.47000000    69.35000000
   H     85.16000000    34.62000000    70.87000000
   N     86.42000000    31.26000000    67.23000000
   C     86.46000000    30.37000000    66.09000000
   C     86.26000000    31.09000000    64.76000000
   O     87.03000000    31.97000000    64.38000000
   C     87.80000000    29.64000000    66.10000000
   C     88.19000000    28.76000000    64.92000000
   N     87.21000000    28.02000000    64.39000000
   O     89.34000000    28.78000000    64.50000000
   H     86.97000000    32.10000000    67.18000000
   H     85.66000000    29.64000000    66.20000000
   H     87.82000000    29.09000000    67.03000000
   H     88.57000000    30.41000000    66.15000000
   H     86.32000000    28.21000000    64.84000000
   H     87.37000000    27.38000000    63.63000000
   N     85.43000000    30.49000000    63.90000000
   C     85.08000000    31.05000000    62.60000000
   C     83.69000000    30.74000000    62.07000000
   O     83.47000000    30.72000000    60.86000000
   C     86.17000000    30.67000000    61.60000000
   C     86.26000000    31.71000000    60.51000000
   C     86.58000000    33.04000000    60.77000000
   C     85.89000000    31.36000000    59.20000000
   C     86.61000000    34.04000000    59.79000000
   C     85.88000000    32.34000000    58.21000000
   C     86.24000000    33.68000000    58.48000000
   O     86.21000000    34.58000000    57.46000000
   H     84.99000000    29.62000000    64.13000000
   H     85.01000000    32.13000000    62.76000000
   H     85.93000000    29.69000000    61.19000000
   H     87.15000000    30.61000000    62.06000000
   H     86.83000000    33.41000000    61.76000000
   H     85.57000000    30.36000000    58.92000000
   H     86.92000000    35.04000000    60.05000000
   H     85.52000000    32.07000000    57.23000000
   H     85.97000000    34.18000000    56.62000000
   N     82.70000000    30.62000000    62.95000000
   C     81.43000000    30.04000000    62.59000000
   C     80.44000000    30.97000000    61.90000000
   O     79.77000000    30.44000000    61.02000000
   C     80.79000000    29.38000000    63.81000000
   C     79.43000000    28.72000000    63.58000000
   C     79.11000000    27.70000000    64.66000000
   O     79.34000000    26.48000000    64.49000000
   O     78.58000000    28.06000000    65.73000000
   H     82.87000000    30.77000000    63.94000000
   H     81.58000000    29.18000000    61.93000000
   H     80.59000000    30.07000000    64.62000000
   H     81.40000000    28.54000000    64.13000000
   H     79.36000000    28.23000000    62.60000000
   H     78.68000000    29.51000000    63.54000000
   N     80.26000000    32.27000000    62.14000000
   C     80.68000000    33.16000000    63.21000000
   C     81.85000000    34.05000000    62.84000000
   O     82.18000000    34.12000000    61.66000000
   C     79.54000000    34.08000000    63.64000000
   C     78.14000000    33.50000000    63.77000000
   C     78.08000000    32.30000000    64.70000000
   O     77.20000000    31.43000000    64.48000000
   O     78.79000000    32.24000000    65.72000000
   H     79.56000000    32.68000000    61.54000000
   H     80.90000000    32.49000000    64.05000000
   H     79.45000000    34.80000000    62.82000000
   H     79.84000000    34.52000000    64.59000000
   H     77.78000000    33.32000000    62.75000000
   H     77.53000000    34.35000000    64.10000000
   N     82.55000000    34.57000000    63.85000000
   C     83.59000000    35.58000000    63.88000000
   H     84.47000000    35.21100000    63.35300000
   H     83.23000000    36.48700000    63.39500000
   H     83.85300000    35.80100000    64.91400000
   H     82.15000000    34.27000000    64.73000000
  Ca     77.91000000    30.22000000    67.07000000
   O     77.82000000    28.29000000    68.87000000
   H     77.10000000    27.66000000    68.80000000
   H     78.24000000    28.09000000    69.70000000
   O     80.51000000    30.51000000    67.47000000
   H     80.85000000    31.27000000    67.00000000
   H     81.19000000    30.29000000    68.11000000
   O     75.57000000    28.91000000    66.32000000
   H     75.15000000    28.05000000    66.26000000
   H     74.84000000    29.53000000    66.39000000

Ca 1.00



