%chk=loop1.cluster71.chk
%nprocshared=20
%mem=10GB
%nosave
#b3lyp/svp scf=(tight,noincore,xqc) Test 
#IOP(5/87=12) Density=Current Pop=(MK,readradii) iop(6/33=2) iop(6/42=6)

loop1.cluster71 

   0  1 
   C     38.95000000    41.98000000    41.18000000
   C     40.18000000    42.28000000    40.34000000
   O     40.70000000    41.46000000    39.58000000
   H     38.10700000    41.76200000    40.52400000
   H     39.14600000    41.11800000    41.81700000
   H     38.71300000    42.84400000    41.80000000
   N     40.55000000    43.56000000    40.33000000
   C     41.58000000    44.18000000    39.52000000
   C     41.37000000    44.01000000    38.03000000
   O     42.28000000    44.29000000    37.25000000
   C     42.95000000    43.68000000    39.98000000
   C     44.12000000    44.53000000    39.51000000
   O     44.05000000    45.76000000    39.71000000
   O     45.19000000    44.02000000    39.11000000
   H     40.00000000    44.19000000    40.91000000
   H     41.56000000    45.24000000    39.77000000
   H     43.11000000    42.63000000    39.75000000
   H     43.01000000    43.77000000    41.07000000
   N     40.18000000    43.59000000    37.58000000
   C     39.81000000    43.19000000    36.24000000
   C     39.95000000    44.29000000    35.20000000
   O     40.58000000    43.99000000    34.19000000
   C     38.44000000    42.51000000    36.23000000
   C     38.34000000    41.27000000    37.11000000
   C     37.04000000    40.49000000    36.93000000
   C     35.90000000    41.15000000    37.69000000
   N     34.54000000    40.72000000    37.30000000
   H     39.46000000    43.56000000    38.28000000
   H     40.47000000    42.37000000    35.97000000
   H     38.29000000    42.19000000    35.20000000
   H     37.64000000    43.20000000    36.51000000
   H     38.49000000    41.55000000    38.15000000
   H     39.17000000    40.63000000    36.83000000
   H     37.17000000    39.49000000    37.34000000
   H     36.81000000    40.45000000    35.86000000
   H     35.94000000    42.23000000    37.56000000
   H     36.09000000    40.93000000    38.74000000
   H     34.44000000    39.84000000    36.82000000
   H     33.92000000    40.70000000    38.10000000
   H     34.16000000    41.38000000    36.65000000
   N     39.38000000    45.47000000    35.46000000
   C     39.26000000    46.54000000    34.50000000
   C     40.49000000    47.42000000    34.37000000
   O     40.64000000    48.19000000    33.43000000
   C     38.04000000    47.37000000    34.87000000
   C     36.67000000    47.04000000    34.30000000
   O     35.68000000    47.70000000    34.66000000
   O     36.56000000    46.14000000    33.43000000
   H     39.02000000    45.63000000    36.40000000
   H     39.04000000    46.18000000    33.49000000
   H     38.30000000    48.41000000    34.64000000
   H     37.92000000    47.28000000    35.95000000
   N     41.38000000    47.34000000    35.36000000
   C     42.55000000    48.16000000    35.57000000
   C     42.45000000    49.64000000    35.93000000
   O     43.45000000    50.21000000    36.38000000
   H     41.11000000    46.76000000    36.15000000
   H     43.13000000    48.19000000    34.64000000
   H     43.15000000    47.71000000    36.35000000
   N     41.24000000    50.20000000    35.88000000
   C     41.16000000    51.64000000    36.01000000
   C     40.67000000    52.03000000    37.40000000
   O     39.90000000    51.38000000    38.10000000
   C     40.30000000    52.29000000    34.93000000
   C     40.73000000    52.15000000    33.47000000
   O     41.01000000    53.19000000    32.85000000
   O     40.82000000    51.01000000    32.95000000
   H     40.55000000    49.72000000    35.31000000
   H     42.06000000    52.23000000    35.83000000
   H     40.15000000    53.35000000    35.12000000
   H     39.33000000    51.82000000    35.06000000
   N     41.24000000    53.17000000    37.80000000
   C     40.85000000    53.83000000    39.03000000
   C     41.18000000    53.18000000    40.37000000
   O     41.27000000    53.85000000    41.40000000
   H     41.80000000    53.72000000    37.17000000
   H     39.77000000    53.89000000    38.94000000
   H     41.32000000    54.82000000    39.02000000
   N     41.32000000    51.86000000    40.52000000
   C     41.38000000    51.12000000    41.77000000
   C     40.32000000    51.42000000    42.82000000
   O     39.17000000    51.64000000    42.46000000
   C     41.63000000    49.62000000    41.59000000
   C     40.48000000    48.84000000    40.96000000
   O     42.86000000    49.42000000    40.95000000
   H     41.36000000    51.39000000    39.64000000
   H     42.34000000    51.40000000    42.20000000
   H     41.74000000    49.29000000    42.63000000
   H     43.21000000    48.58000000    41.26000000
   H     39.56000000    48.92000000    41.53000000
   H     40.39000000    49.33000000    39.99000000
   H     40.76000000    47.79000000    40.84000000
   N     40.64000000    51.37000000    44.11000000
   C     39.75000000    51.59000000    45.23000000
   C     40.24000000    52.61000000    46.26000000
   O     39.43000000    53.03000000    47.07000000
   C     39.26000000    50.35000000    45.97000000
   C     40.51000000    49.66000000    46.50000000
   C     38.42000000    49.43000000    45.08000000
   C     40.08000000    48.74000000    47.64000000
   H     41.62000000    51.21000000    44.29000000
   H     38.87000000    52.09000000    44.82000000
   H     38.62000000    50.60000000    46.81000000
   H     41.22000000    50.43000000    46.82000000
   H     40.99000000    49.01000000    45.77000000
   H     38.87000000    49.36000000    44.09000000
   H     38.40000000    48.43000000    45.50000000
   H     37.45000000    49.91000000    44.96000000
   H     40.91000000    48.54000000    48.32000000
   H     39.16000000    49.05000000    48.13000000
   H     39.85000000    47.82000000    47.10000000
   N     41.54000000    52.91000000    46.23000000
   C     42.33000000    53.84000000    47.02000000
   C     43.74000000    53.35000000    47.33000000
   O     44.28000000    52.55000000    46.57000000
   C     42.55000000    55.18000000    46.32000000
   C     43.27000000    55.16000000    44.97000000
   O     41.36000000    55.91000000    46.14000000
   H     42.02000000    52.49000000    45.44000000
   H     41.72000000    53.97000000    47.91000000
   H     43.16000000    55.80000000    46.97000000
   H     41.26000000    56.04000000    45.20000000
   H     44.16000000    54.53000000    44.98000000
   H     42.66000000    54.63000000    44.24000000
   H     43.40000000    56.18000000    44.63000000
   N     44.38000000    53.92000000    48.35000000
   C     45.80000000    53.74000000    48.53000000
   C     46.12000000    53.18000000    49.91000000
   O     46.47000000    52.00000000    50.02000000
   C     46.54000000    55.00000000    48.09000000
   C     48.06000000    55.08000000    48.21000000
   O     46.15000000    56.04000000    48.96000000
   H     43.96000000    54.62000000    48.95000000
   H     46.25000000    52.90000000    48.01000000
   H     46.29000000    55.30000000    47.07000000
   H     46.18000000    56.82000000    48.41000000
   H     48.44000000    54.53000000    49.07000000
   H     48.57000000    54.66000000    47.34000000
   H     48.48000000    56.08000000    48.33000000
   N     45.91000000    53.98000000    50.95000000
   C     45.72000000    53.62000000    52.34000000
   C     44.74000000    54.54000000    53.07000000
   O     44.45000000    55.61000000    52.55000000
   C     47.12000000    53.54000000    52.93000000
   C     47.98000000    54.81000000    53.02000000
   C     47.56000000    55.76000000    54.13000000
   C     48.67000000    56.75000000    54.48000000
   N     48.10000000    57.49000000    55.62000000
   H     45.69000000    54.92000000    50.67000000
   H     45.32000000    52.61000000    52.39000000
   H     47.67000000    53.06000000    52.13000000
   H     47.06000000    52.96000000    53.86000000
   H     47.94000000    55.44000000    52.13000000
   H     48.99000000    54.50000000    53.29000000
   H     47.36000000    55.28000000    55.09000000
   H     46.68000000    56.36000000    53.88000000
   H     48.74000000    57.49000000    53.68000000
   H     49.58000000    56.20000000    54.68000000
   H     47.31000000    58.04000000    55.31000000
   H     47.81000000    56.90000000    56.38000000
   H     48.84000000    58.02000000    56.06000000
   N     44.43000000    54.19000000    54.32000000
   C     43.62000000    55.02000000    55.19000000
   C     42.18000000    55.33000000    54.78000000
   O     41.70000000    56.37000000    55.22000000
   C     43.65000000    54.46000000    56.61000000
   C     45.03000000    54.28000000    57.23000000
   C     45.69000000    55.62000000    57.52000000
   O     46.94000000    55.60000000    57.52000000
   O     45.09000000    56.71000000    57.56000000
   H     44.72000000    53.27000000    54.63000000
   H     44.11000000    55.99000000    55.24000000
   H     43.30000000    53.42000000    56.62000000
   H     43.09000000    55.04000000    57.34000000
   H     45.64000000    53.53000000    56.72000000
   H     44.78000000    53.86000000    58.20000000
   N     41.37000000    54.56000000    54.06000000
   C     41.61000000    53.32000000    53.35000000
   H     42.61200000    52.95800000    53.58000000
   H     40.87600000    52.57600000    53.65900000
   H     41.52400000    53.49200000    52.27700000
   H     40.50000000    55.00000000    53.78000000
  Ca     41.04000000    49.33000000    31.01000000
   O     39.20000000    50.39000000    29.39000000
   H     38.32000000    50.03000000    29.27000000
   H     39.25000000    51.10000000    28.75000000
   O     41.97000000    49.11000000    28.64000000
   H     41.97000000    48.48000000    27.92000000
   H     42.82000000    49.55000000    28.57000000
   O     42.79000000    46.86000000    31.45000000
   H     43.68000000    46.83000000    31.78000000
   H     42.66000000    46.01000000    31.02000000
   O     39.98000000    47.00000000    30.04000000
   H     39.04000000    46.81000000    29.93000000
   H     40.36000000    46.17000000    30.32000000
   O     41.86000000    52.01000000    30.59000000
   H     41.56000000    52.16000000    31.49000000
   H     42.04000000    52.89000000    30.25000000
   O     43.68000000    49.62000000    31.49000000
   H     43.94000000    49.52000000    32.41000000
   H     44.48000000    49.93000000    31.06000000
   O     38.48000000    49.30000000    32.06000000
   H     37.77000000    48.93000000    31.52000000
   H     38.03000000    49.61000000    32.85000000

Ca 1.00



