%chk=loop1.cluster118.chk
%nprocshared=20
%mem=10GB
%nosave
#b3lyp/svp scf=(tight,noincore,xqc) Test 
#IOP(5/87=12) Density=Current Pop=(MK,readradii) iop(6/33=2) iop(6/42=6)

loop1.cluster118 

   0  1 
   C     95.56000000   112.50000000    78.02000000
   C     94.27000000   113.14000000    77.54000000
   O     93.25000000   113.09000000    78.23000000
   H     96.32000000   113.27000000    78.15200000
   H     95.38500000   111.99700000    78.97100000
   H     95.90300000   111.77500000    77.28200000
   N     94.25000000   113.69000000    76.32000000
   C     93.17000000   114.55000000    75.88000000
   C     92.48000000   113.92000000    74.69000000
   O     93.09000000   113.18000000    73.92000000
   C     93.68000000   115.93000000    75.48000000
   C     94.72000000   116.58000000    76.38000000
   O     94.19000000   117.11000000    77.38000000
   O     95.93000000   116.28000000    76.34000000
   H     95.13000000   113.78000000    75.83000000
   H     92.42000000   114.69000000    76.66000000
   H     92.88000000   116.67000000    75.41000000
   H     94.19000000   115.87000000    74.52000000
   N     91.23000000   114.31000000    74.42000000
   C     90.36000000   113.71000000    73.42000000
   C     90.68000000   114.33000000    72.07000000
   O     90.46000000   113.69000000    71.04000000
   C     88.88000000   113.73000000    73.77000000
   C     88.54000000   112.80000000    74.93000000
   C     87.09000000   112.88000000    75.42000000
   C     87.16000000   112.42000000    76.87000000
   N     85.91000000   112.71000000    77.59000000
   H     90.82000000   114.98000000    75.05000000
   H     90.59000000   112.65000000    73.40000000
   H     88.38000000   113.39000000    72.86000000
   H     88.62000000   114.76000000    74.02000000
   H     89.28000000   112.95000000    75.71000000
   H     88.62000000   111.77000000    74.59000000
   H     86.40000000   112.16000000    74.98000000
   H     86.72000000   113.90000000    75.45000000
   H     87.99000000   112.92000000    77.37000000
   H     87.20000000   111.33000000    76.87000000
   H     86.09000000   112.89000000    78.57000000
   H     85.54000000   113.64000000    77.43000000
   H     85.26000000   111.97000000    77.36000000
   N     91.26000000   115.54000000    72.07000000
   C     91.85000000   116.23000000    70.94000000
   C     93.20000000   116.84000000    71.27000000
   O     93.47000000   117.41000000    72.32000000
   C     90.74000000   117.16000000    70.46000000
   C     91.03000000   117.72000000    69.07000000
   O     90.75000000   118.91000000    68.83000000
   O     91.76000000   117.06000000    68.29000000
   H     91.28000000   115.95000000    72.99000000
   H     91.99000000   115.48000000    70.17000000
   H     90.64000000   118.04000000    71.09000000
   H     89.85000000   116.54000000    70.48000000
   N     94.12000000   116.71000000    70.31000000
   C     95.36000000   117.45000000    70.21000000
   C     96.03000000   117.36000000    68.84000000
   O     95.71000000   116.47000000    68.06000000
   H     93.95000000   116.06000000    69.55000000
   H     96.01000000   116.98000000    70.96000000
   H     95.21000000   118.47000000    70.54000000
   N     96.90000000   118.31000000    68.51000000
   C     97.78000000   118.10000000    67.37000000
   C     99.24000000   117.93000000    67.76000000
   O     99.64000000   118.56000000    68.73000000
   C     97.64000000   119.27000000    66.39000000
   C     96.19000000   119.67000000    66.15000000
   O     95.89000000   120.84000000    66.50000000
   O     95.44000000   118.84000000    65.60000000
   H     97.04000000   119.05000000    69.18000000
   H     97.52000000   117.13000000    66.94000000
   H     98.15000000   119.02000000    65.47000000
   H     98.24000000   120.04000000    66.86000000
   N    100.01000000   117.05000000    67.12000000
   C    101.43000000   116.89000000    67.39000000
   C    101.71000000   116.02000000    68.61000000
   O    102.51000000   115.10000000    68.53000000
   H     99.57000000   116.37000000    66.52000000
   H    101.94000000   117.85000000    67.41000000
   H    101.93000000   116.33000000    66.60000000
   N    101.00000000   116.30000000    69.71000000
   C    101.12000000   115.56000000    70.95000000
   C    101.77000000   116.29000000    72.12000000
   O    101.50000000   117.47000000    72.34000000
   C     99.79000000   114.92000000    71.33000000
   C     98.60000000   115.85000000    71.49000000
   O     99.43000000   114.00000000    70.32000000
   H    100.40000000   117.11000000    69.69000000
   H    101.85000000   114.77000000    70.79000000
   H     99.85000000   114.44000000    72.31000000
   H     98.71000000   113.47000000    70.66000000
   H     98.73000000   116.43000000    72.41000000
   H     98.63000000   116.48000000    70.60000000
   H     97.67000000   115.32000000    71.70000000
   N    102.60000000   115.52000000    72.83000000
   C    103.34000000   115.74000000    74.06000000
   C    104.85000000   115.78000000    73.91000000
   O    105.51000000   115.51000000    74.91000000
   C    102.84000000   114.89000000    75.23000000
   C    103.25000000   113.43000000    75.04000000
   C    101.34000000   115.04000000    75.42000000
   C    103.21000000   112.62000000    76.33000000
   H    102.79000000   114.62000000    72.41000000
   H    103.15000000   116.77000000    74.36000000
   H    103.25000000   115.32000000    76.14000000
   H    104.30000000   113.38000000    74.76000000
   H    102.64000000   112.91000000    74.30000000
   H    101.00000000   116.07000000    75.27000000
   H    100.89000000   114.41000000    74.66000000
   H    101.07000000   114.70000000    76.42000000
   H    102.25000000   112.48000000    76.83000000
   H    103.58000000   111.60000000    76.15000000
   H    103.78000000   113.11000000    77.12000000
   N    105.33000000   116.02000000    72.68000000
   C    106.67000000   115.88000000    72.15000000
   C    106.85000000   114.73000000    71.17000000
   O    106.02000000   114.47000000    70.29000000
   C    107.25000000   117.22000000    71.72000000
   C    108.75000000   117.19000000    71.48000000
   O    106.62000000   117.70000000    70.55000000
   H    104.71000000   116.38000000    71.97000000
   H    107.28000000   115.57000000    73.00000000
   H    107.11000000   117.94000000    72.53000000
   H    105.67000000   117.72000000    70.69000000
   H    109.05000000   118.14000000    71.02000000
   H    109.28000000   117.05000000    72.42000000
   H    108.96000000   116.43000000    70.72000000
   N    107.92000000   113.97000000    71.35000000
   C    108.20000000   112.78000000    70.57000000
   C    108.40000000   111.58000000    71.48000000
   O    108.31000000   110.44000000    71.02000000
   C    109.41000000   113.02000000    69.66000000
   C    110.71000000   113.22000000    70.44000000
   O    109.23000000   114.18000000    68.89000000
   H    108.71000000   114.27000000    71.91000000
   H    107.42000000   112.53000000    69.85000000
   H    109.56000000   112.15000000    69.02000000
   H    110.10000000   114.56000000    68.73000000
   H    110.97000000   112.42000000    71.13000000
   H    111.51000000   113.38000000    69.72000000
   H    110.54000000   114.11000000    71.04000000
   N    108.74000000   111.72000000    72.77000000
   C    109.44000000   110.64000000    73.44000000
   C    108.45000000   109.63000000    73.99000000
   O    107.30000000   109.99000000    74.25000000
   C    110.47000000   111.19000000    74.43000000
   C    109.86000000   112.01000000    75.56000000
   C    109.47000000   111.23000000    76.81000000
   C    110.72000000   110.71000000    77.51000000
   N    110.32000000   109.89000000    78.67000000
   H    108.86000000   112.66000000    73.10000000
   H    110.09000000   110.21000000    72.67000000
   H    111.24000000   111.83000000    74.00000000
   H    111.22000000   110.48000000    74.77000000
   H    109.19000000   112.72000000    75.06000000
   H    110.65000000   112.72000000    75.80000000
   H    108.80000000   110.39000000    76.62000000
   H    108.83000000   111.86000000    77.44000000
   H    111.45000000   111.49000000    77.71000000
   H    111.26000000   110.03000000    76.85000000
   H    109.54000000   109.28000000    78.47000000
   H    111.03000000   109.17000000    78.78000000
   H    110.24000000   110.37000000    79.55000000
   N    108.94000000   108.40000000    74.10000000
   C    108.14000000   107.20000000    74.29000000
   C    107.38000000   106.77000000    73.04000000
   O    108.00000000   106.88000000    71.99000000
   C    108.93000000   105.99000000    74.75000000
   C    109.01000000   105.77000000    76.26000000
   C    109.48000000   107.00000000    77.02000000
   O    110.70000000   107.30000000    76.97000000
   O    108.72000000   107.65000000    77.77000000
   H    109.85000000   108.27000000    73.69000000
   H    107.41000000   107.43000000    75.07000000
   H    109.96000000   106.02000000    74.38000000
   H    108.47000000   105.11000000    74.30000000
   H    109.69000000   104.97000000    76.51000000
   H    108.04000000   105.40000000    76.60000000
   N    106.15000000   106.27000000    73.16000000
   C    105.30000000   105.96000000    74.30000000
   H    104.32700000   105.61900000    73.94500000
   H    105.76400000   105.17500000    74.89700000
   H    105.17100000   106.85300000    74.91100000
   H    105.77000000   106.08000000    72.25000000
  Ca     91.92000000   121.00500000    67.75000000
   O     93.39000000   118.89500000    67.32000000
   H     93.19000000   118.04500000    67.70000000
   H     94.14000000   118.74500000    66.76000000
   O     90.40000000   122.91500000    66.71000000
   H     89.61000000   122.75500000    66.19000000
   H     91.03000000   123.26500000    66.09000000
   O     90.66000000   121.69500000    69.89000000
   H     90.24000000   122.55500000    69.86000000
   H     90.30000000   121.27500000    70.66000000
   O     93.80000000   120.68500000    69.52000000
   H     93.81000000   120.76500000    70.47000000
   H     94.71000000   120.53500000    69.28000000
   O     93.42000000   121.77500000    65.73000000
   H     93.55000000   122.44500000    65.06000000
   H     94.22000000   121.23500000    65.69000000
   O     92.95000000   123.33500000    68.82000000
   H     93.19000000   124.01500000    68.19000000
   H     92.49000000   123.80500000    69.51000000
   O     90.62000000   119.58500000    65.93000000
   H     90.66000000   118.66500000    65.69000000
   H     90.01000000   119.97500000    65.31000000

Ca 1.00



