%chk=loop4.cluster153.chk
%nprocshared=20
%mem=10GB
%nosave
#b3lyp/svp scf=(tight,noincore,xqc) Test 
#IOP(5/87=12) Density=Current Pop=(MK,readradii) iop(6/33=2) iop(6/42=6)

loop4.cluster153 

   -3  1 
   C     68.33000000    57.09000000    85.26000000
   C     69.17000000    55.83000000    85.46000000
   O     70.14000000    55.66000000    84.72000000
   H     67.39500000    56.99400000    85.81100000
   H     68.88000000    57.95600000    85.62700000
   H     68.11400000    57.21900000    84.19900000
   N     68.86000000    54.92000000    86.38000000
   C     69.70000000    53.76000000    86.56000000
   C     71.09000000    54.11000000    87.05000000
   O     72.00000000    53.28000000    86.99000000
   C     69.50000000    52.68000000    85.49000000
   C     68.08000000    52.46000000    84.98000000
   O     67.24000000    52.12000000    85.84000000
   O     67.91000000    52.65000000    83.76000000
   H     68.01000000    54.97000000    86.93000000
   H     69.30000000    53.27000000    87.45000000
   H     69.88000000    51.74000000    85.89000000
   H     70.06000000    52.88000000    84.58000000
   N     71.25000000    55.35000000    87.54000000
   C     72.46000000    55.93000000    88.08000000
   C     72.23000000    56.40000000    89.50000000
   O     71.38000000    57.24000000    89.77000000
   C     72.80000000    57.09000000    87.15000000
   C     73.28000000    56.81000000    85.73000000
   C     73.84000000    57.94000000    87.88000000
   C     74.42000000    55.80000000    85.62000000
   H     70.52000000    56.03000000    87.39000000
   H     73.31000000    55.24000000    88.04000000
   H     71.90000000    57.70000000    87.05000000
   H     73.47000000    57.76000000    85.23000000
   H     72.50000000    56.28000000    85.19000000
   H     74.39000000    58.62000000    87.23000000
   H     73.27000000    58.62000000    88.51000000
   H     74.58000000    57.32000000    88.38000000
   H     74.07000000    54.80000000    85.85000000
   H     74.83000000    55.86000000    84.61000000
   H     75.24000000    55.99000000    86.31000000
   N     73.08000000    56.00000000    90.45000000
   C     74.14000000    55.01000000    90.38000000
   C     73.71000000    53.55000000    90.24000000
   O     74.55000000    52.68000000    90.05000000
   C     74.96000000    55.18000000    91.66000000
   C     75.59000000    56.53000000    91.94000000
   O     76.81000000    56.62000000    92.18000000
   O     74.88000000    57.56000000    91.90000000
   H     73.05000000    56.62000000    91.24000000
   H     74.71000000    55.34000000    89.52000000
   H     75.73000000    54.40000000    91.64000000
   H     74.35000000    54.89000000    92.51000000
   N     72.41000000    53.30000000    90.39000000
   C     71.72000000    52.05000000    90.13000000
   C     72.34000000    50.87000000    90.88000000
   O     72.59000000    50.96000000    92.08000000
   H     71.88000000    54.06000000    90.80000000
   H     71.67000000    51.81000000    89.07000000
   H     70.68000000    52.22000000    90.40000000
   N     72.31000000    49.74000000    90.17000000
   C     72.93000000    48.47000000    90.46000000
   C     74.29000000    48.18000000    89.83000000
   O     74.87000000    47.15000000    90.16000000
   C     71.90000000    47.40000000    90.09000000
   C     71.54000000    47.29000000    88.62000000
   O     72.02000000    48.06000000    87.76000000
   O     70.66000000    46.45000000    88.31000000
   H     72.07000000    49.86000000    89.19000000
   H     72.98000000    48.44000000    91.54000000
   H     71.03000000    47.70000000    90.68000000
   H     72.24000000    46.42000000    90.43000000
   N     74.76000000    49.11000000    89.00000000
   C     75.94000000    49.01000000    88.16000000
   C     75.62000000    48.70000000    86.71000000
   O     76.51000000    48.84000000    85.86000000
   H     74.27000000    49.98000000    88.88000000
   H     76.60000000    48.23000000    88.53000000
   H     76.56000000    49.90000000    88.28000000
   N     74.50000000    48.07000000    86.35000000
   C     74.19000000    47.49000000    85.06000000
   C     74.35000000    48.35000000    83.82000000
   O     75.11000000    48.01000000    82.91000000
   C     74.88000000    46.13000000    85.09000000
   C     74.34000000    45.05000000    86.02000000
   C     75.20000000    43.79000000    86.05000000
   N     74.85000000    42.83000000    86.91000000
   O     76.22000000    43.69000000    85.37000000
   H     73.78000000    48.11000000    87.06000000
   H     73.12000000    47.30000000    85.09000000
   H     75.93000000    46.28000000    85.36000000
   H     74.86000000    45.84000000    84.04000000
   H     73.33000000    44.76000000    85.76000000
   H     74.22000000    45.46000000    87.03000000
   H     74.15000000    42.99000000    87.62000000
   H     75.53000000    42.10000000    87.06000000
   N     73.45000000    49.33000000    83.70000000
   C     73.34000000    50.17000000    82.52000000
   C     72.17000000    49.65000000    81.69000000
   O     71.01000000    49.49000000    82.06000000
   C     73.07000000    51.60000000    82.97000000
   C     74.09000000    52.11000000    83.98000000
   C     72.97000000    52.57000000    81.80000000
   H     72.78000000    49.47000000    84.43000000
   H     74.22000000    50.07000000    81.89000000
   H     72.14000000    51.54000000    83.53000000
   H     73.69000000    53.07000000    84.31000000
   H     74.18000000    51.42000000    84.82000000
   H     75.03000000    52.25000000    83.45000000
   H     72.86000000    53.63000000    82.06000000
   H     73.76000000    52.40000000    81.07000000
   H     72.05000000    52.32000000    81.28000000
   N     72.54000000    49.25000000    80.47000000
   C     71.82000000    48.50000000    79.46000000
   C     71.61000000    49.35000000    78.21000000
   O     72.53000000    49.97000000    77.68000000
   C     72.59000000    47.20000000    79.27000000
   C     72.75000000    46.71000000    77.84000000
   N     71.70000000    46.04000000    77.34000000
   O     73.73000000    46.93000000    77.13000000
   H     73.53000000    49.31000000    80.25000000
   H     70.84000000    48.28000000    79.89000000
   H     72.11000000    46.41000000    79.84000000
   H     73.62000000    47.22000000    79.63000000
   H     70.87000000    45.89000000    77.88000000
   H     71.70000000    45.84000000    76.35000000
   N     70.45000000    49.20000000    77.57000000
   C     70.28000000    49.84000000    76.28000000
   C     68.85000000    50.26000000    75.99000000
   O     68.55000000    50.38000000    74.80000000
   C     70.92000000    48.89000000    75.27000000
   C     71.00000000    49.35000000    73.83000000
   C     71.31000000    50.70000000    73.67000000
   C     71.00000000    48.42000000    72.78000000
   C     71.32000000    51.18000000    72.35000000
   C     71.15000000    48.90000000    71.47000000
   C     71.18000000    50.30000000    71.26000000
   O     71.08000000    50.83000000    70.01000000
   H     69.68000000    48.64000000    77.92000000
   H     70.87000000    50.76000000    76.34000000
   H     70.50000000    47.89000000    75.38000000
   H     71.96000000    48.75000000    75.57000000
   H     71.32000000    51.46000000    74.44000000
   H     70.85000000    47.36000000    72.94000000
   H     71.37000000    52.25000000    72.21000000
   H     71.01000000    48.19000000    70.67000000
   H     71.24000000    50.21000000    69.29000000
   N     67.97000000    50.32000000    76.99000000
   C     66.53000000    50.23000000    76.87000000
   C     65.97000000    51.54000000    76.31000000
   O     65.36000000    51.47000000    75.25000000
   C     65.89000000    49.71000000    78.15000000
   C     64.37000000    49.61000000    78.01000000
   C     63.95000000    48.61000000    76.94000000
   O     63.51000000    48.97000000    75.82000000
   O     64.06000000    47.39000000    77.15000000
   H     68.33000000    50.19000000    77.92000000
   H     66.44000000    49.53000000    76.04000000
   H     66.04000000    50.32000000    79.03000000
   H     66.29000000    48.71000000    78.34000000
   H     63.87000000    50.56000000    77.84000000
   H     64.04000000    49.20000000    78.97000000
   N     66.20000000    52.75000000    76.82000000
   C     67.02000000    53.05000000    77.98000000
   C     68.46000000    53.44000000    77.65000000
   O     68.77000000    53.60000000    76.47000000
   C     66.28000000    54.17000000    78.71000000
   C     64.83000000    53.75000000    78.87000000
   C     64.10000000    54.71000000    79.81000000
   O     64.56000000    54.81000000    80.97000000
   O     63.21000000    55.46000000    79.36000000
   H     65.75000000    53.50000000    76.33000000
   H     67.12000000    52.29000000    78.75000000
   H     66.35000000    55.11000000    78.17000000
   H     66.69000000    54.19000000    79.72000000
   H     64.75000000    52.70000000    79.17000000
   H     64.36000000    53.84000000    77.89000000
   N     69.39000000    53.74000000    78.56000000
   C     70.67000000    54.31000000    78.20000000
   H     71.42200000    53.52200000    78.16700000
   H     70.59600000    54.78100000    77.22000000
   H     70.95800000    55.05500000    78.94100000
   H     69.16000000    53.57000000    79.53000000
  Ca     65.69000000    53.81000000    83.06000000
   O     66.22000000    51.73000000    81.32000000
   H     66.74000000    51.09000000    80.83000000
   H     65.31000000    51.52000000    81.10000000
   O     65.01000000    51.37000000    84.03000000
   H     64.90000000    50.61000000    83.47000000
   H     65.57000000    51.05000000    84.75000000
   O     67.67000000    55.14000000    81.92000000
   H     67.45000000    55.86000000    81.32000000
   H     68.62000000    55.10000000    81.90000000

Ca 1.00



