%chk=loop3.cluster68.chk
%nprocshared=20
%mem=10GB
%nosave
#b3lyp/svp scf=(tight,noincore,xqc) Test 
#IOP(5/87=12) Density=Current Pop=(MK,readradii) iop(6/33=2) iop(6/42=6)

loop3.cluster68 

   0  1 
   C    103.83000000    75.48000000    83.53000000
   C    102.51000000    74.76000000    83.28000000
   O    101.78000000    75.18000000    82.38000000
   H    104.57800000    75.12100000    82.82300000
   H    103.69000000    76.55300000    83.39700000
   H    104.16700000    75.28000000    84.54700000
   N    102.18000000    73.71000000    84.02000000
   C    101.01000000    72.85000000    83.96000000
   C    100.23000000    73.02000000    85.26000000
   O    100.84000000    73.09000000    86.32000000
   C    101.35000000    71.44000000    83.50000000
   C    100.11000000    70.71000000    83.01000000
   O    100.14000000    69.52000000    82.61000000
   O     99.01000000    71.31000000    82.98000000
   H    102.90000000    73.50000000    84.69000000
   H    100.45000000    73.27000000    83.12000000
   H    101.82000000    70.86000000    84.29000000
   H    102.11000000    71.50000000    82.73000000
   N     98.90000000    73.01000000    85.22000000
   C     97.95000000    73.20000000    86.30000000
   C     96.75000000    72.27000000    86.36000000
   O     96.22000000    72.08000000    87.45000000
   C     97.41000000    74.62000000    86.22000000
   C     98.43000000    75.75000000    86.30000000
   C     99.13000000    75.91000000    87.65000000
   C     99.86000000    77.25000000    87.68000000
   N    100.87000000    77.43000000    86.63000000
   H     98.45000000    73.12000000    84.32000000
   H     98.44000000    73.03000000    87.26000000
   H     96.75000000    74.71000000    87.08000000
   H     96.86000000    74.78000000    85.29000000
   H     97.90000000    76.67000000    86.06000000
   H     99.14000000    75.55000000    85.49000000
   H     99.84000000    75.11000000    87.87000000
   H     98.36000000    75.89000000    88.42000000
   H    100.40000000    77.28000000    88.63000000
   H     99.14000000    78.06000000    87.59000000
   H    101.30000000    78.34000000    86.73000000
   H    101.61000000    76.75000000    86.63000000
   H    100.39000000    77.46000000    85.74000000
   N     96.35000000    71.60000000    85.27000000
   C     95.59000000    70.37000000    85.34000000
   C     96.43000000    69.10000000    85.38000000
   O     95.89000000    68.06000000    85.76000000
   C     94.45000000    70.40000000    84.32000000
   C     94.93000000    70.39000000    82.88000000
   O     94.05000000    70.28000000    82.00000000
   O     96.13000000    70.51000000    82.53000000
   H     96.72000000    71.94000000    84.40000000
   H     95.13000000    70.38000000    86.33000000
   H     93.79000000    71.26000000    84.45000000
   H     93.77000000    69.60000000    84.60000000
   N     97.72000000    69.17000000    85.05000000
   C     98.61000000    68.03000000    85.09000000
   C     98.37000000    66.89000000    84.11000000
   O     98.76000000    65.75000000    84.34000000
   H     98.06000000    70.09000000    84.81000000
   H     98.52000000    67.58000000    86.08000000
   H     99.62000000    68.43000000    85.08000000
   N     97.60000000    67.26000000    83.08000000
   C     97.07000000    66.29000000    82.14000000
   C     98.06000000    65.88000000    81.06000000
   O     98.17000000    66.51000000    80.01000000
   C     95.73000000    66.72000000    81.56000000
   C     94.99000000    65.55000000    80.91000000
   N     94.13000000    65.83000000    79.93000000
   O     95.23000000    64.37000000    81.15000000
   H     97.27000000    68.21000000    83.03000000
   H     96.85000000    65.41000000    82.75000000
   H     95.90000000    67.52000000    80.84000000
   H     95.02000000    67.14000000    82.27000000
   H     93.97000000    66.82000000    79.82000000
   H     93.60000000    65.15000000    79.41000000
   N     98.81000000    64.80000000    81.27000000
   C     99.79000000    64.37000000    80.29000000
   C     99.22000000    63.31000000    79.36000000
   O     99.98000000    62.66000000    78.65000000
   H     98.74000000    64.38000000    82.19000000
   H    100.64000000    63.90000000    80.77000000
   H    100.06000000    65.28000000    79.74000000
   N     97.92000000    63.02000000    79.46000000
   C     97.21000000    62.00000000    78.71000000
   C     96.30000000    62.71000000    77.73000000
   O     95.54000000    63.62000000    78.05000000
   C     96.43000000    61.12000000    79.68000000
   C     95.79000000    59.89000000    79.08000000
   C     94.44000000    59.97000000    78.71000000
   C     96.54000000    58.71000000    78.96000000
   C     93.85000000    58.83000000    78.15000000
   C     95.94000000    57.58000000    78.40000000
   C     94.59000000    57.64000000    77.99000000
   O     93.99000000    56.56000000    77.41000000
   H     97.45000000    63.64000000    80.10000000
   H     97.90000000    61.35000000    78.17000000
   H     95.57000000    61.68000000    80.06000000
   H     97.11000000    60.85000000    80.50000000
   H     93.74000000    60.78000000    78.79000000
   H     97.52000000    58.70000000    79.42000000
   H     92.82000000    58.85000000    77.82000000
   H     96.44000000    56.62000000    78.31000000
   H     94.57000000    55.80000000    77.35000000
   N     96.60000000    62.47000000    76.45000000
   C     96.06000000    63.14000000    75.28000000
   C     94.59000000    62.88000000    74.96000000
   O     93.71000000    63.24000000    75.73000000
   C     96.46000000    64.61000000    75.21000000
   C     95.88000000    65.26000000    73.96000000
   C     97.97000000    64.75000000    75.12000000
   C     96.41000000    66.68000000    73.79000000
   H     97.16000000    61.66000000    76.22000000
   H     96.63000000    62.72000000    74.44000000
   H     96.08000000    65.11000000    76.10000000
   H     94.79000000    65.30000000    73.91000000
   H     96.15000000    64.65000000    73.10000000
   H     98.50000000    64.34000000    75.99000000
   H     98.39000000    64.16000000    74.31000000
   H     98.28000000    65.79000000    75.13000000
   H     95.81000000    67.25000000    73.08000000
   H     96.44000000    67.28000000    74.70000000
   H     97.40000000    66.72000000    73.33000000
   N     94.46000000    62.37000000    73.73000000
   C     93.22000000    62.08000000    73.04000000
   C     93.31000000    61.21000000    71.80000000
   O     92.38000000    60.47000000    71.49000000
   C     92.47000000    63.33000000    72.58000000
   O     93.38000000    63.97000000    71.71000000
   H     95.34000000    62.36000000    73.25000000
   H     92.56000000    61.59000000    73.76000000
   H     92.34000000    64.03000000    73.41000000
   H     91.59000000    63.05000000    72.00000000
   H     93.20000000    64.91000000    71.72000000
   N     94.42000000    61.16000000    71.07000000
   C     94.67000000    60.58000000    69.76000000
   C     93.49000000    60.69000000    68.81000000
   O     92.99000000    59.68000000    68.33000000
   C     95.26000000    59.19000000    70.00000000
   H     95.11000000    61.78000000    71.46000000
   H     95.44000000    61.17000000    69.27000000
   H     96.17000000    59.27000000    70.60000000
   H     94.51000000    58.55000000    70.47000000
   H     95.50000000    58.76000000    69.03000000
   N     92.84000000    61.83000000    68.56000000
   C     93.38000000    63.18000000    68.56000000
   C     94.33000000    63.56000000    67.44000000
   O     93.99000000    63.29000000    66.29000000
   C     92.21000000    64.13000000    68.77000000
   H     92.00000000    61.73000000    68.02000000
   H     93.83000000    63.24000000    69.56000000
   H     91.74000000    64.22000000    67.79000000
   H     91.55000000    63.85000000    69.60000000
   H     92.61000000    65.12000000    69.00000000
   N     95.59000000    63.96000000    67.60000000
   C     96.36000000    64.16000000    68.82000000
   C     97.70000000    63.44000000    68.87000000
   O     98.04000000    62.85000000    69.89000000
   C     96.63000000    65.65000000    68.96000000
   C     96.82000000    66.11000000    70.40000000
   C     97.00000000    67.63000000    70.40000000
   O     98.16000000    68.08000000    70.34000000
   O     95.97000000    68.33000000    70.40000000
   H     96.06000000    64.32000000    66.78000000
   H     95.77000000    63.83000000    69.67000000
   H     95.73000000    66.10000000    68.54000000
   H     97.44000000    65.94000000    68.28000000
   H     97.72000000    65.69000000    70.83000000
   H     95.96000000    65.76000000    70.97000000
   N     98.46000000    63.43000000    67.77000000
   C     99.34000000    62.34000000    67.41000000
   H    100.28000000    62.43800000    67.95400000
   H     98.86900000    61.39200000    67.66700000
   H     99.53600000    62.37000000    66.33800000
   H     98.06000000    63.96000000    67.01000000
  Ca     97.64000000    71.82000000    81.03000000
   O     96.66000000    70.73000000    78.78000000
   H     95.78000000    70.84000000    78.42000000
   H     97.15000000    70.29000000    78.09000000
   O     99.43000000    73.87000000    80.94000000
   H    100.37000000    73.86000000    81.09000000
   H     99.28000000    74.62000000    80.36000000
   O     94.98000000    72.21000000    80.41000000
   H     94.60000000    72.05000000    79.54000000
   H     94.48000000    71.65000000    81.00000000
   O     99.56000000    70.98000000    79.33000000
   H     99.69000000    70.11000000    79.70000000
   H    100.19000000    71.02000000    78.60000000
   O     97.31000000    74.00000000    79.10000000
   H     97.14000000    73.39000000    78.39000000
   H     97.09000000    74.86000000    78.73000000
   O     96.91000000    73.71000000    82.67000000
   H     97.15000000    74.63000000    82.56000000
   H     96.03000000    73.73000000    83.04000000
   O     98.09000000    69.06000000    80.90000000
   H     98.83000000    68.95000000    81.49000000
   H     98.08000000    68.25000000    80.38000000

Ca 1.00



