%chk=loop3.cluster31.chk
%nprocshared=20
%mem=10GB
%nosave
#b3lyp/svp scf=(tight,noincore,xqc) Test 
#IOP(5/87=12) Density=Current Pop=(MK,readradii) iop(6/33=2) iop(6/42=6)

loop3.cluster31 

   0  1 
   C     62.06000000    46.53000000    34.11000000
   C     61.85000000    45.70000000    35.38000000
   O     62.80000000    44.99000000    35.71000000
   H     63.10400000    46.46700000    33.80400000
   H     61.42400000    46.14300000    33.31300000
   H     61.80200000    47.57000000    34.30800000
   N     60.69000000    45.80000000    36.03000000
   C     60.44000000    44.97000000    37.19000000
   C     60.24000000    43.52000000    36.77000000
   O     59.44000000    43.24000000    35.88000000
   C     59.26000000    45.58000000    37.94000000
   C     58.80000000    44.82000000    39.17000000
   O     57.74000000    45.24000000    39.68000000
   O     59.23000000    43.69000000    39.51000000
   H     60.01000000    46.50000000    35.78000000
   H     61.30000000    44.97000000    37.86000000
   H     58.45000000    45.65000000    37.21000000
   H     59.61000000    46.56000000    38.26000000
   N     60.95000000    42.58000000    37.40000000
   C     61.08000000    41.17000000    37.08000000
   C     60.18000000    40.19000000    37.82000000
   O     60.25000000    38.99000000    37.59000000
   C     62.56000000    40.80000000    37.12000000
   C     63.50000000    41.73000000    36.36000000
   C     63.05000000    41.84000000    34.91000000
   C     64.20000000    42.45000000    34.11000000
   N     63.72000000    42.89000000    32.79000000
   H     61.44000000    42.94000000    38.21000000
   H     60.85000000    40.92000000    36.05000000
   H     62.68000000    39.82000000    36.66000000
   H     62.79000000    40.80000000    38.19000000
   H     64.50000000    41.32000000    36.53000000
   H     63.59000000    42.65000000    36.94000000
   H     62.11000000    42.39000000    34.93000000
   H     62.96000000    40.81000000    34.56000000
   H     65.07000000    41.79000000    34.01000000
   H     64.57000000    43.33000000    34.63000000
   H     62.84000000    43.37000000    32.94000000
   H     64.38000000    43.40000000    32.22000000
   H     63.35000000    42.13000000    32.24000000
   N     59.25000000    40.67000000    38.65000000
   C     58.14000000    39.94000000    39.22000000
   C     56.89000000    40.78000000    39.46000000
   O     55.86000000    40.15000000    39.71000000
   C     58.62000000    39.23000000    40.49000000
   C     59.23000000    40.10000000    41.59000000
   O     59.90000000    39.53000000    42.47000000
   O     59.19000000    41.34000000    41.47000000
   H     59.27000000    41.63000000    38.96000000
   H     57.91000000    39.23000000    38.43000000
   H     59.32000000    38.45000000    40.19000000
   H     57.81000000    38.60000000    40.86000000
   N     56.92000000    42.08000000    39.20000000
   C     55.72000000    42.89000000    39.08000000
   C     55.13000000    43.22000000    40.45000000
   O     53.94000000    43.15000000    40.72000000
   H     57.78000000    42.61000000    39.18000000
   H     55.05000000    42.23000000    38.53000000
   H     55.86000000    43.77000000    38.45000000
   N     56.03000000    43.59000000    41.36000000
   C     55.78000000    43.82000000    42.77000000
   C     55.80000000    45.32000000    43.05000000
   O     55.67000000    45.77000000    44.18000000
   C     56.63000000    42.90000000    43.64000000
   C     58.12000000    43.19000000    43.78000000
   N     58.79000000    42.40000000    44.61000000
   O     58.78000000    43.96000000    43.09000000
   H     56.99000000    43.65000000    41.04000000
   H     54.73000000    43.58000000    42.94000000
   H     56.56000000    41.95000000    43.10000000
   H     56.18000000    42.74000000    44.62000000
   H     58.27000000    41.70000000    45.13000000
   H     59.77000000    42.45000000    44.88000000
   N     55.90000000    46.15000000    42.01000000
   C     56.02000000    47.59000000    42.12000000
   C     57.31000000    48.21000000    42.62000000
   O     57.30000000    49.41000000    42.89000000
   H     56.18000000    45.68000000    41.16000000
   H     55.16000000    47.98000000    42.67000000
   H     55.90000000    48.01000000    41.12000000
   N     58.37000000    47.42000000    42.81000000
   C     59.75000000    47.85000000    42.90000000
   C     60.72000000    47.08000000    42.01000000
   O     60.72000000    45.86000000    41.87000000
   C     60.38000000    47.76000000    44.28000000
   C     60.72000000    46.43000000    44.91000000
   C     59.76000000    45.87000000    45.75000000
   C     61.91000000    45.72000000    44.66000000
   C     60.04000000    44.63000000    46.34000000
   C     62.17000000    44.47000000    45.23000000
   C     61.20000000    43.89000000    46.07000000
   O     61.44000000    42.76000000    46.79000000
   H     58.26000000    46.42000000    42.71000000
   H     59.75000000    48.90000000    42.60000000
   H     59.73000000    48.33000000    44.95000000
   H     61.34000000    48.27000000    44.31000000
   H     58.86000000    46.42000000    46.02000000
   H     62.62000000    46.19000000    44.00000000
   H     59.31000000    44.25000000    47.04000000
   H     63.10000000    43.96000000    45.01000000
   H     62.25000000    42.29000000    46.57000000
   N     61.65000000    47.88000000    41.50000000
   C     62.90000000    47.43000000    40.92000000
   C     63.94000000    47.30000000    42.03000000
   O     63.97000000    48.06000000    42.99000000
   C     63.37000000    48.37000000    39.80000000
   C     62.28000000    48.41000000    38.74000000
   C     64.70000000    48.07000000    39.12000000
   C     62.22000000    49.79000000    38.10000000
   H     61.59000000    48.85000000    41.77000000
   H     62.69000000    46.40000000    40.65000000
   H     63.51000000    49.31000000    40.32000000
   H     61.26000000    48.14000000    39.01000000
   H     62.44000000    47.56000000    38.07000000
   H     65.55000000    48.11000000    39.80000000
   H     64.66000000    47.12000000    38.58000000
   H     64.86000000    48.89000000    38.42000000
   H     62.02000000    50.63000000    38.76000000
   H     63.09000000    49.91000000    37.45000000
   H     61.45000000    49.78000000    37.32000000
   N     64.91000000    46.39000000    41.94000000
   C     65.94000000    46.20000000    42.94000000
   C     67.36000000    46.31000000    42.39000000
   O     67.51000000    46.28000000    41.17000000
   C     65.70000000    44.87000000    43.65000000
   O     66.29000000    43.81000000    42.94000000
   H     64.75000000    45.66000000    41.27000000
   H     65.90000000    46.91000000    43.77000000
   H     64.62000000    44.72000000    43.78000000
   H     66.08000000    45.00000000    44.66000000
   H     65.83000000    43.04000000    43.28000000
   N     68.39000000    46.28000000    43.23000000
   C     69.77000000    46.20000000    42.78000000
   C     70.05000000    44.89000000    42.05000000
   O     70.98000000    44.79000000    41.26000000
   C     70.69000000    46.40000000    43.98000000
   H     68.23000000    46.28000000    44.23000000
   H     69.91000000    47.02000000    42.08000000
   H     70.43000000    47.23000000    44.64000000
   H     70.78000000    45.55000000    44.65000000
   H     71.65000000    46.55000000    43.50000000
   N     69.36000000    43.80000000    42.37000000
   C     69.52000000    42.58000000    41.60000000
   C     68.91000000    42.77000000    40.21000000
   O     69.63000000    42.55000000    39.25000000
   C     69.00000000    41.35000000    42.34000000
   H     68.47000000    43.97000000    42.83000000
   H     70.57000000    42.41000000    41.35000000
   H     68.98000000    40.46000000    41.72000000
   H     69.73000000    41.23000000    43.14000000
   H     68.05000000    41.58000000    42.82000000
   N     67.69000000    43.31000000    40.12000000
   C     67.00000000    43.49000000    38.86000000
   C     67.70000000    44.44000000    37.90000000
   O     67.74000000    44.27000000    36.68000000
   C     65.57000000    43.99000000    39.08000000
   C     64.70000000    43.00000000    39.84000000
   C     63.42000000    43.66000000    40.31000000
   O     62.40000000    43.79000000    39.59000000
   O     63.27000000    43.96000000    41.51000000
   H     67.18000000    43.57000000    40.95000000
   H     66.95000000    42.50000000    38.39000000
   H     65.18000000    44.21000000    38.09000000
   H     65.54000000    44.97000000    39.55000000
   H     65.25000000    42.63000000    40.71000000
   H     64.54000000    42.15000000    39.17000000
   N     68.35000000    45.50000000    38.36000000
   C     69.23000000    46.32000000    37.55000000
   H     70.18700000    45.81300000    37.42700000
   H     68.77700000    46.48300000    36.57200000
   H     69.38900000    47.27900000    38.04200000
   H     68.39000000    45.61000000    39.37000000
  Ca     60.81000000    43.33000000    41.57000000
   O     61.35000000    41.73000000    43.52000000
   H     62.09000000    41.76000000    44.13000000
   H     61.04000000    40.82000000    43.57000000
   O     62.21000000    40.82000000    40.93000000
   H     61.38000000    40.38000000    41.12000000
   H     62.83000000    40.11000000    40.78000000

Ca 1.00



