%chk=loop2.cluster234.chk
%nprocshared=20
%mem=10GB
%nosave
#b3lyp/svp scf=(tight,noincore,xqc) Test 
#IOP(5/87=12) Density=Current Pop=(MK,readradii) iop(6/33=2) iop(6/42=6)

loop2.cluster234 

   -2  1 
   C     64.41000000   109.16000000    24.03000000
   C     63.83000000   110.31000000    24.85000000
   O     64.49000000   110.84000000    25.75000000
   H     65.40600000   108.91800000    24.39900000
   H     63.76600000   108.28600000    24.12300000
   H     64.47300000   109.45500000    22.98300000
   N     62.58000000   110.64000000    24.54000000
   C     61.90000000   111.82000000    25.03000000
   C     60.38000000   111.68000000    25.00000000
   O     59.71000000   111.72000000    26.02000000
   C     62.43000000   112.94000000    24.14000000
   C     61.87000000   114.28000000    24.61000000
   O     61.98000000   114.48000000    25.83000000
   O     61.48000000   115.08000000    23.73000000
   H     62.13000000   110.19000000    23.75000000
   H     62.25000000   111.99000000    26.05000000
   H     62.04000000   112.79000000    23.13000000
   H     63.52000000   112.96000000    24.16000000
   N     59.87000000   111.73000000    23.77000000
   C     58.46000000   112.00000000    23.55000000
   C     57.50000000   111.09000000    24.30000000
   O     56.35000000   111.40000000    24.60000000
   C     58.16000000   113.47000000    23.83000000
   H     60.39000000   111.53000000    22.93000000
   H     58.21000000   111.86000000    22.49000000
   H     58.09000000   113.61000000    24.91000000
   H     58.91000000   114.10000000    23.36000000
   H     57.19000000   113.63000000    23.36000000
   N     58.00000000   109.87000000    24.50000000
   C     57.41000000   108.74000000    25.20000000
   C     56.74000000   109.19000000    26.49000000
   O     55.59000000   108.83000000    26.72000000
   C     56.62000000   107.79000000    24.30000000
   C     57.34000000   107.62000000    22.97000000
   O     56.76000000   107.92000000    21.90000000
   O     58.50000000   107.16000000    23.00000000
   H     58.99000000   109.78000000    24.35000000
   H     58.29000000   108.18000000    25.51000000
   H     55.64000000   108.24000000    24.14000000
   H     56.49000000   106.84000000    24.81000000
   N     57.46000000   109.84000000    27.40000000
   C     57.13000000   109.97000000    28.80000000
   C     57.83000000   108.87000000    29.59000000
   O     58.89000000   108.47000000    29.12000000
   H     58.35000000   110.16000000    27.04000000
   H     56.07000000   109.83000000    28.97000000
   H     57.62000000   110.92000000    29.04000000
   N     57.26000000   108.30000000    30.65000000
   C     57.67000000   107.18000000    31.48000000
   C     58.95000000   107.50000000    32.24000000
   O     59.50000000   106.60000000    32.86000000
   C     57.83000000   105.99000000    30.54000000
   C     56.53000000   105.69000000    29.80000000
   N     56.48000000   105.76000000    28.47000000
   O     55.48000000   105.46000000    30.39000000
   H     56.38000000   108.71000000    30.93000000
   H     56.86000000   107.11000000    32.20000000
   H     58.05000000   105.17000000    31.22000000
   H     58.64000000   106.17000000    29.83000000
   H     57.34000000   105.94000000    27.97000000
   H     55.59000000   105.66000000    28.01000000
   N     59.43000000   108.75000000    32.21000000
   C     60.58000000   109.20000000    32.97000000
   C     61.93000000   108.83000000    32.38000000
   O     62.87000000   108.42000000    33.05000000
   H     58.91000000   109.48000000    31.74000000
   H     60.59000000   108.95000000    34.03000000
   H     60.47000000   110.29000000    32.98000000
   N     62.08000000   108.91000000    31.05000000
   C     63.34000000   108.67000000    30.38000000
   C     63.67000000   107.27000000    29.90000000
   O     62.78000000   106.42000000    30.01000000
   C     63.55000000   109.70000000    29.27000000
   C     62.42000000   109.69000000    28.24000000
   O     63.59000000   110.95000000    29.92000000
   H     61.28000000   109.15000000    30.48000000
   H     64.12000000   108.93000000    31.10000000
   H     64.47000000   109.47000000    28.75000000
   H     64.19000000   111.45000000    29.36000000
   H     62.30000000   108.66000000    27.90000000
   H     61.48000000   109.81000000    28.78000000
   H     62.52000000   110.40000000    27.42000000
   N     64.87000000   107.07000000    29.37000000
   C     65.38000000   105.88000000    28.72000000
   C     64.75000000   105.71000000    27.35000000
   O     64.23000000   106.64000000    26.74000000
   C     66.91000000   105.79000000    28.67000000
   C     67.56000000   106.77000000    27.70000000
   C     67.50000000   105.89000000    30.07000000
   C     69.04000000   107.10000000    27.86000000
   H     65.55000000   107.82000000    29.45000000
   H     65.00000000   105.11000000    29.39000000
   H     67.15000000   104.79000000    28.33000000
   H     66.99000000   107.70000000    27.78000000
   H     67.30000000   106.45000000    26.68000000
   H     66.89000000   105.29000000    30.76000000
   H     68.51000000   105.48000000    30.12000000
   H     67.52000000   106.93000000    30.39000000
   H     69.15000000   107.49000000    28.87000000
   H     69.68000000   106.23000000    27.83000000
   H     69.45000000   107.80000000    27.13000000
   N     64.65000000   104.49000000    26.81000000
   C     63.86000000   104.18000000    25.64000000
   C     63.15000000   102.86000000    25.91000000
   O     63.81000000   101.84000000    26.11000000
   C     64.76000000   104.02000000    24.42000000
   C     64.03000000   103.72000000    23.12000000
   O     62.79000000   103.79000000    22.98000000
   O     64.62000000   103.48000000    22.04000000
   H     65.11000000   103.67000000    27.17000000
   H     63.22000000   105.04000000    25.45000000
   H     65.47000000   103.20000000    24.58000000
   H     65.32000000   104.95000000    24.28000000
   N     61.83000000   102.90000000    26.06000000
   C     60.99000000   101.74000000    26.29000000
   C     60.08000000   101.97000000    27.49000000
   O     58.91000000   102.28000000    27.31000000
   C     60.30000000   101.25000000    25.02000000
   C     58.98000000   100.54000000    25.23000000
   C     57.84000000   100.95000000    24.53000000
   C     58.95000000    99.43000000    26.08000000
   C     56.65000000   100.25000000    24.75000000
   C     57.74000000    98.80000000    26.41000000
   C     56.61000000    99.22000000    25.70000000
   H     61.32000000   103.78000000    26.02000000
   H     61.58000000   100.86000000    26.57000000
   H     60.96000000   100.60000000    24.45000000
   H     60.11000000   102.08000000    24.34000000
   H     57.80000000   101.82000000    23.89000000
   H     59.89000000    99.13000000    26.53000000
   H     55.84000000   100.53000000    24.10000000
   H     57.63000000    98.02000000    27.14000000
   H     55.73000000    98.60000000    25.79000000
   N     60.58000000   101.85000000    28.72000000
   C     61.94000000   101.85000000    29.20000000
   C     62.57000000   100.47000000    29.15000000
   O     62.13000000    99.61000000    29.91000000
   C     61.95000000   102.46000000    30.60000000
   C     60.51000000   102.80000000    30.97000000
   C     59.78000000   101.95000000    29.93000000
   H     62.55000000   102.56000000    28.63000000
   H     62.30000000   101.79000000    31.38000000
   H     62.63000000   103.31000000    30.55000000
   H     60.35000000   102.60000000    32.03000000
   H     60.34000000   103.87000000    30.90000000
   H     59.66000000   100.99000000    30.43000000
   H     58.78000000   102.37000000    29.75000000
   N     63.61000000   100.30000000    28.33000000
   C     64.39000000    99.08000000    28.24000000
   C     65.88000000    99.38000000    28.36000000
   O     66.42000000   100.31000000    27.77000000
   C     63.98000000    98.28000000    27.01000000
   C     64.47000000    96.84000000    27.04000000
   C     64.37000000    96.25000000    25.63000000
   O     63.32000000    95.74000000    25.22000000
   O     65.44000000    96.20000000    24.98000000
   H     63.86000000   101.06000000    27.71000000
   H     64.03000000    98.58000000    29.14000000
   H     64.34000000    98.77000000    26.11000000
   H     62.89000000    98.32000000    26.97000000
   H     63.86000000    96.22000000    27.69000000
   H     65.48000000    96.78000000    27.43000000
   N     66.57000000    98.56000000    29.16000000
   C     67.97000000    98.60000000    29.54000000
   H     68.52300000    99.20600000    28.82300000
   H     68.06500000    99.03700000    30.53400000
   H     68.37400000    97.58800000    29.54800000
   H     65.98000000    97.83000000    29.53000000
  Ca     62.80000000   103.48800000    20.17000000
   O     62.55000000   101.12800000    21.32000000
   H     61.74000000   100.67800000    21.08000000
   H     62.79000000   100.75800000    22.17000000
   O     61.17000000   102.78800000    18.23000000
   H     60.83000000   101.89800000    18.14000000
   H     60.41000000   103.34800000    18.10000000
   O     64.68000000   102.05800000    19.07000000
   H     65.14000000   102.24800000    18.25000000
   H     64.93000000   101.16800000    19.29000000
   O     60.05000000   102.96800000    21.09000000
   H     59.78000000   102.05800000    21.19000000
   H     59.45000000   103.46800000    21.64000000

Ca 1.00



