%chk=loop3.cluster84.chk
%nprocshared=20
%mem=10GB
%nosave
#b3lyp/svp scf=(tight,noincore,xqc) Test 
#IOP(5/87=12) Density=Current Pop=(MK,readradii) iop(6/33=2) iop(6/42=6)

loop3.cluster84 

   0  1 
   C    102.94000000    60.28000000    18.78000000
   C    104.42000000    59.90000000    18.78000000
   O    104.82000000    58.82000000    18.36000000
   H    102.36700000    59.50800000    19.29300000
   H    102.80900000    61.23200000    19.29500000
   H    102.58800000    60.37000000    17.75300000
   N    105.32000000    60.87000000    18.92000000
   C    106.74000000    60.81000000    18.63000000
   C    107.56000000    60.15000000    19.72000000
   O    107.13000000    60.02000000    20.87000000
   C    107.27000000    62.22000000    18.40000000
   C    106.94000000    63.23000000    19.49000000
   O    107.11000000    64.45000000    19.28000000
   O    106.42000000    62.83000000    20.56000000
   H    105.04000000    61.73000000    19.36000000
   H    106.95000000    60.36000000    17.66000000
   H    106.77000000    62.60000000    17.51000000
   H    108.32000000    62.23000000    18.09000000
   N    108.79000000    59.75000000    19.38000000
   C    109.87000000    59.20000000    20.18000000
   C    110.79000000    58.26000000    19.41000000
   O    111.44000000    58.68000000    18.45000000
   C    110.58000000    60.41000000    20.80000000
   C    111.28000000    60.00000000    22.09000000
   C    111.84000000    61.25000000    22.77000000
   C    112.53000000    60.89000000    24.08000000
   N    113.96000000    60.62000000    23.84000000
   H    108.99000000    59.96000000    18.41000000
   H    109.46000000    58.66000000    21.03000000
   H    109.98000000    61.29000000    21.03000000
   H    111.36000000    60.76000000    20.12000000
   H    112.10000000    59.36000000    21.76000000
   H    110.59000000    59.62000000    22.85000000
   H    110.97000000    61.89000000    22.94000000
   H    112.50000000    61.88000000    22.17000000
   H    112.13000000    60.00000000    24.55000000
   H    112.47000000    61.72000000    24.79000000
   H    114.46000000    60.36000000    24.68000000
   H    114.21000000    59.86000000    23.22000000
   H    114.38000000    61.49000000    23.55000000
   N    110.79000000    56.95000000    19.64000000
   C    111.53000000    55.95000000    18.90000000
   C    110.88000000    55.57000000    17.58000000
   O    111.48000000    54.72000000    16.92000000
   C    111.74000000    54.75000000    19.82000000
   C    110.50000000    54.19000000    20.50000000
   O    109.36000000    54.53000000    20.10000000
   O    110.67000000    53.43000000    21.48000000
   H    110.22000000    56.65000000    20.42000000
   H    112.53000000    56.32000000    18.67000000
   H    112.51000000    54.89000000    20.58000000
   H    112.17000000    53.92000000    19.25000000
   N    109.82000000    56.28000000    17.19000000
   C    109.08000000    56.16000000    15.95000000
   C    107.83000000    57.02000000    15.82000000
   O    107.28000000    57.36000000    16.86000000
   H    109.49000000    56.86000000    17.95000000
   H    108.70000000    55.14000000    15.87000000
   H    109.65000000    56.49000000    15.09000000
   N    107.37000000    57.39000000    14.62000000
   C    107.69000000    56.74000000    13.37000000
   C    106.46000000    55.93000000    13.01000000
   O    105.37000000    56.51000000    13.04000000
   C    108.22000000    57.78000000    12.39000000
   C    108.67000000    57.15000000    11.08000000
   N    107.69000000    56.81000000    10.24000000
   O    109.79000000    56.68000000    10.92000000
   H    106.53000000    57.95000000    14.54000000
   H    108.48000000    56.04000000    13.61000000
   H    109.06000000    58.38000000    12.75000000
   H    107.38000000    58.43000000    12.17000000
   H    106.75000000    57.14000000    10.40000000
   H    107.89000000    56.26000000     9.41000000
   N    106.46000000    54.63000000    12.70000000
   C    107.62000000    53.76000000    12.75000000
   C    107.56000000    52.79000000    13.92000000
   O    107.44000000    53.29000000    15.04000000
   H    105.55000000    54.25000000    12.48000000
   H    108.60000000    54.23000000    12.76000000
   H    107.62000000    53.19000000    11.82000000
   N    107.44000000    51.48000000    13.68000000
   C    106.95000000    50.42000000    14.52000000
   C    107.79000000    49.15000000    14.53000000
   O    108.22000000    48.60000000    13.52000000
   C    105.53000000    50.11000000    14.05000000
   C    104.70000000    51.36000000    13.90000000
   C    104.24000000    51.98000000    15.06000000
   C    104.42000000    51.92000000    12.64000000
   C    103.56000000    53.20000000    14.94000000
   C    103.65000000    53.08000000    12.49000000
   C    103.25000000    53.73000000    13.68000000
   O    102.56000000    54.91000000    13.60000000
   H    107.66000000    51.18000000    12.74000000
   H    106.89000000    50.81000000    15.54000000
   H    105.00000000    49.39000000    14.68000000
   H    105.62000000    49.61000000    13.09000000
   H    104.52000000    51.60000000    16.03000000
   H    104.77000000    51.36000000    11.79000000
   H    103.13000000    53.77000000    15.75000000
   H    103.37000000    53.45000000    11.52000000
   H    102.10000000    54.97000000    12.77000000
   N    108.03000000    48.65000000    15.75000000
   C    108.80000000    47.44000000    15.99000000
   C    108.03000000    46.13000000    15.87000000
   O    108.56000000    45.03000000    15.96000000
   C    109.47000000    47.79000000    17.32000000
   C    108.74000000    47.52000000    18.64000000
   C    110.84000000    47.12000000    17.34000000
   C    108.76000000    46.18000000    19.37000000
   H    107.47000000    48.94000000    16.53000000
   H    109.58000000    47.41000000    15.23000000
   H    109.59000000    48.87000000    17.35000000
   H    107.68000000    47.64000000    18.43000000
   H    109.13000000    48.15000000    19.44000000
   H    110.76000000    46.03000000    17.30000000
   H    111.34000000    47.31000000    16.39000000
   H    111.41000000    47.39000000    18.23000000
   H    109.79000000    45.90000000    19.55000000
   H    108.23000000    46.25000000    20.32000000
   H    108.20000000    45.49000000    18.74000000
   N    106.71000000    46.19000000    15.70000000
   C    105.85000000    45.06000000    15.42000000
   C    105.36000000    44.34000000    16.66000000
   O    104.97000000    43.19000000    16.47000000
   C    104.68000000    45.51000000    14.54000000
   O    105.14000000    46.24000000    13.42000000
   H    106.33000000    47.08000000    15.41000000
   H    106.37000000    44.38000000    14.74000000
   H    103.98000000    46.11000000    15.11000000
   H    104.14000000    44.62000000    14.23000000
   H    104.33000000    46.55000000    13.00000000
   N    105.28000000    44.97000000    17.84000000
   C    104.69000000    44.44000000    19.04000000
   C    104.22000000    45.53000000    20.00000000
   O    105.00000000    46.32000000    20.51000000
   C    105.63000000    43.46000000    19.74000000
   H    105.54000000    45.95000000    17.90000000
   H    103.89000000    43.82000000    18.64000000
   H    105.16000000    42.99000000    20.60000000
   H    105.87000000    42.75000000    18.95000000
   H    106.52000000    44.01000000    20.04000000
   N    102.93000000    45.40000000    20.33000000
   C    102.28000000    46.11000000    21.41000000
   C    102.35000000    47.63000000    21.50000000
   O    101.91000000    48.19000000    22.50000000
   C    102.60000000    45.45000000    22.75000000
   H    102.43000000    44.62000000    19.93000000
   H    101.26000000    45.84000000    21.15000000
   H    103.60000000    45.69000000    23.13000000
   H    101.95000000    45.89000000    23.51000000
   H    102.48000000    44.37000000    22.70000000
   N    102.83000000    48.32000000    20.46000000
   C    102.70000000    49.76000000    20.42000000
   C    101.28000000    50.23000000    20.11000000
   O    100.79000000    51.22000000    20.64000000
   C    103.78000000    50.36000000    19.53000000
   C    105.24000000    50.11000000    19.89000000
   C    106.19000000    50.80000000    18.92000000
   O    106.68000000    50.16000000    17.96000000
   O    106.39000000    52.02000000    19.07000000
   H    103.20000000    47.84000000    19.65000000
   H    102.85000000    50.26000000    21.38000000
   H    103.61000000    51.43000000    19.68000000
   H    103.69000000    50.06000000    18.49000000
   H    105.40000000    49.03000000    19.87000000
   H    105.51000000    50.61000000    20.81000000
   N    100.60000000    49.48000000    19.24000000
   C     99.20000000    49.74000000    18.99000000
   H     98.65100000    49.70400000    19.93100000
   H     99.08800000    50.72700000    18.54200000
   H     98.80500000    48.98500000    18.31100000
   H    101.16000000    48.80000000    18.74000000
  Ca    105.19500000    56.26000000    18.40000000
   O    106.43500000    54.15000000    17.41000000
   H    106.53500000    53.75000000    16.55000000
   H    106.36500000    53.41000000    18.01000000
   O    102.72500000    55.32000000    18.16000000
   H    101.86500000    55.51000000    17.79000000
   H    102.58500000    54.56000000    18.73000000
   O    103.99500000    56.94000000    20.78000000
   H    103.61500000    56.29000000    21.38000000
   H    104.10500000    57.72000000    21.32000000
   O    104.41500000    56.24000000    15.88000000
   H    103.73500000    56.75000000    15.43000000
   H    104.60500000    55.52000000    15.27000000
   O    105.03500000    54.20000000    19.93000000
   H    104.49500000    53.77000000    20.59000000
   H    105.62500000    53.51000000    19.62000000
   O    107.43500000    56.36000000    19.64000000
   H    108.15500000    55.74000000    19.71000000
   H    107.33500000    56.72000000    20.52000000

Ca 1.00



