%chk=loop2.cluster53.chk
%nprocshared=20
%mem=10GB
%nosave
#b3lyp/svp scf=(tight,noincore,xqc) Test 
#IOP(5/87=12) Density=Current Pop=(MK,readradii) iop(6/33=2) iop(6/42=6)

loop2.cluster53 

   -2  1 
   C     95.77000000    75.65000000    46.20000000
   C     97.24000000    75.50000000    46.57000000
   O     97.92000000    76.48000000    46.27000000
   H     95.21700000    76.03100000    47.05800000
   H     95.67400000    76.34700000    45.36700000
   H     95.36700000    74.68000000    45.91100000
   N     97.80000000    74.44000000    47.16000000
   C     99.23000000    74.24000000    47.29000000
   C     99.68000000    74.91000000    48.58000000
   O     99.42000000    74.42000000    49.68000000
   C     99.42000000    72.73000000    47.22000000
   C    100.85000000    72.33000000    46.91000000
   O    101.78000000    73.17000000    46.87000000
   O    101.04000000    71.10000000    46.84000000
   H     97.23000000    73.61000000    47.16000000
   H     99.68000000    74.68000000    46.39000000
   H     98.68000000    72.48000000    46.46000000
   H     99.01000000    72.35000000    48.15000000
   N    100.30000000    76.08000000    48.45000000
   C    100.78000000    76.93000000    49.53000000
   C     99.69000000    77.95000000    49.84000000
   O     98.87000000    78.30000000    49.00000000
   C    102.06000000    77.67000000    49.16000000
   H    100.49000000    76.38000000    47.50000000
   H    101.04000000    76.26000000    50.35000000
   H    102.96000000    77.11000000    49.38000000
   H    102.05000000    77.85000000    48.08000000
   H    102.06000000    78.58000000    49.75000000
   N     99.48000000    78.35000000    51.10000000
   C    100.33000000    78.31000000    52.27000000
   C     99.99000000    77.09000000    53.11000000
   O     98.84000000    76.66000000    53.08000000
   C    100.37000000    79.69000000    52.91000000
   C    100.80000000    80.85000000    52.03000000
   O    100.62000000    81.99000000    52.51000000
   O    101.12000000    80.67000000    50.84000000
   H     98.59000000    78.79000000    51.27000000
   H    101.38000000    78.17000000    51.99000000
   H    101.05000000    79.57000000    53.76000000
   H     99.32000000    79.75000000    53.17000000
   N    100.90000000    76.71000000    54.02000000
   C    100.63000000    75.55000000    54.84000000
   C    100.73000000    74.22000000    54.11000000
   O    101.35000000    74.07000000    53.06000000
   H    101.77000000    77.20000000    54.13000000
   H     99.66000000    75.61000000    55.34000000
   H    101.39000000    75.45000000    55.62000000
   N    100.11000000    73.11000000    54.53000000
   C     99.35000000    72.98000000    55.76000000
   C     97.99000000    73.65000000    55.85000000
   O     97.42000000    73.69000000    56.94000000
   C     99.30000000    71.48000000    56.04000000
   C    100.60000000    70.73000000    56.31000000
   N    100.93000000    70.25000000    57.51000000
   O    101.43000000    70.57000000    55.42000000
   H    100.30000000    72.28000000    53.99000000
   H     99.99000000    73.44000000    56.51000000
   H     98.85000000    70.96000000    55.19000000
   H     98.60000000    71.33000000    56.86000000
   H    100.15000000    70.28000000    58.16000000
   H    101.74000000    69.68000000    57.66000000
   N     97.41000000    74.16000000    54.77000000
   C     96.12000000    74.83000000    54.80000000
   C     96.14000000    76.16000000    55.53000000
   O     95.18000000    76.48000000    56.24000000
   H     97.89000000    74.16000000    53.88000000
   H     95.32000000    74.21000000    55.21000000
   H     95.84000000    74.88000000    53.74000000
   N     97.06000000    77.08000000    55.23000000
   C     97.13000000    78.40000000    55.81000000
   C     96.53000000    79.39000000    54.81000000
   O     97.07000000    80.45000000    54.51000000
   C     98.55000000    78.78000000    56.21000000
   C     98.57000000    79.93000000    57.22000000
   O     99.15000000    77.74000000    56.95000000
   H     97.71000000    76.82000000    54.49000000
   H     96.56000000    78.56000000    56.73000000
   H     99.16000000    78.99000000    55.34000000
   H    100.03000000    78.10000000    56.91000000
   H     98.12000000    80.81000000    56.75000000
   H     98.12000000    79.59000000    58.15000000
   H     99.56000000    80.28000000    57.49000000
   N     95.34000000    79.18000000    54.24000000
   C     94.65000000    80.04000000    53.30000000
   C     93.85000000    81.12000000    54.02000000
   O     93.79000000    81.12000000    55.25000000
   C     93.86000000    79.13000000    52.38000000
   C     94.71000000    78.05000000    51.71000000
   C     92.57000000    78.57000000    52.98000000
   C     95.88000000    78.48000000    50.83000000
   H     94.83000000    78.46000000    54.73000000
   H     95.44000000    80.55000000    52.75000000
   H     93.66000000    79.80000000    51.54000000
   H     94.05000000    77.43000000    51.11000000
   H     95.06000000    77.28000000    52.40000000
   H     92.13000000    77.94000000    52.21000000
   H     92.81000000    78.03000000    53.90000000
   H     91.88000000    79.39000000    53.18000000
   H     96.58000000    79.10000000    51.38000000
   H     96.42000000    77.58000000    50.54000000
   H     95.47000000    78.85000000    49.89000000
   N     93.32000000    82.02000000    53.19000000
   C     92.55000000    83.17000000    53.60000000
   C     91.37000000    83.49000000    52.69000000
   O     91.56000000    83.68000000    51.49000000
   C     93.47000000    84.37000000    53.80000000
   C     94.64000000    84.35000000    52.83000000
   O     95.72000000    83.80000000    53.15000000
   O     94.68000000    85.06000000    51.79000000
   H     93.47000000    81.90000000    52.19000000
   H     92.27000000    82.96000000    54.63000000
   H     93.76000000    84.29000000    54.85000000
   H     92.85000000    85.26000000    53.74000000
   N     90.15000000    83.63000000    53.22000000
   C     89.04000000    84.15000000    52.44000000
   C     88.64000000    83.15000000    51.36000000
   O     88.75000000    81.96000000    51.65000000
   C     87.88000000    84.48000000    53.38000000
   C     86.71000000    85.13000000    52.68000000
   C     85.67000000    84.37000000    52.11000000
   C     86.77000000    86.52000000    52.52000000
   C     84.78000000    85.04000000    51.26000000
   C     85.91000000    87.17000000    51.64000000
   C     84.89000000    86.42000000    51.05000000
   H     89.99000000    83.53000000    54.21000000
   H     89.40000000    85.04000000    51.94000000
   H     88.16000000    85.21000000    54.13000000
   H     87.54000000    83.53000000    53.80000000
   H     85.62000000    83.30000000    52.23000000
   H     87.46000000    87.07000000    53.15000000
   H     83.95000000    84.52000000    50.81000000
   H     85.97000000    88.25000000    51.58000000
   H     84.15000000    86.93000000    50.45000000
   N     88.39000000    83.55000000    50.11000000
   C     87.79000000    82.66000000    49.14000000
   C     88.68000000    81.57000000    48.54000000
   O     88.18000000    80.59000000    47.99000000
   C     87.32000000    83.59000000    48.03000000
   C     88.23000000    84.81000000    48.10000000
   C     88.41000000    84.91000000    49.61000000
   H     86.93000000    82.17000000    49.60000000
   H     87.43000000    83.13000000    47.04000000
   H     86.25000000    83.81000000    48.11000000
   H     89.20000000    84.65000000    47.64000000
   H     87.73000000    85.74000000    47.82000000
   H     89.40000000    85.34000000    49.75000000
   H     87.63000000    85.57000000    49.99000000
   N     89.92000000    81.48000000    49.02000000
   C     90.92000000    80.46000000    48.80000000
   C     90.42000000    79.10000000    49.26000000
   O     90.59000000    78.14000000    48.51000000
   C     92.26000000    80.85000000    49.43000000
   C     92.77000000    82.15000000    48.82000000
   C     94.16000000    82.42000000    49.37000000
   O     94.85000000    83.23000000    48.72000000
   O     94.60000000    82.08000000    50.49000000
   H     90.21000000    82.24000000    49.62000000
   H     90.97000000    80.46000000    47.71000000
   H     92.95000000    80.04000000    49.17000000
   H     92.17000000    80.98000000    50.50000000
   H     92.16000000    83.02000000    49.07000000
   H     92.82000000    82.14000000    47.73000000
   N     89.68000000    79.00000000    50.37000000
   C     89.11000000    77.73000000    50.75000000
   H     88.13200000    77.61700000    50.28300000
   H     89.76500000    76.92400000    50.41900000
   H     89.00200000    77.68900000    51.83400000
   H     89.28000000    79.86000000    50.71000000
  Ca     96.69000000    83.59000000    50.67000000
   O     99.48000000    83.45000000    50.78000000
   H     99.96000000    82.78000000    51.26000000
   H    100.15000000    83.95000000    50.32000000
   O     97.85000000    81.91000000    52.43000000
   H     97.67000000    81.44000000    53.25000000
   H     98.77000000    82.19000000    52.52000000
   O     97.48000000    81.79000000    48.94000000
   H     98.41000000    81.63000000    48.79000000
   H     97.03000000    81.06000000    48.50000000
   O     97.49000000    85.12000000    48.65000000
   H     97.59000000    85.08000000    47.70000000
   H     97.47000000    86.05000000    48.86000000
   O     97.56000000    85.84000000    51.81000000
   H     98.45000000    86.14000000    51.62000000
   H     97.22000000    86.48000000    52.44000000

Ca 1.00



