%chk=loop1.cluster50.chk
%nprocshared=20
%mem=10GB
%nosave
#b3lyp/svp scf=(tight,noincore,xqc) Test 
#IOP(5/87=12) Density=Current Pop=(MK,readradii) iop(6/33=2) iop(6/42=6)

loop1.cluster50 

   0  1 
   C     46.62000000    37.22000000     5.73000000
   C     46.73000000    36.87000000     4.25000000
   O     47.58000000    37.39000000     3.54000000
   H     45.57200000    37.36300000     5.99200000
   H     47.03600000    36.40900000     6.32800000
   H     47.17200000    38.13800000     5.92900000
   N     45.94000000    35.87000000     3.85000000
   C     46.11000000    35.17000000     2.59000000
   C     45.73000000    36.03000000     1.39000000
   O     44.52000000    36.19000000     1.21000000
   C     45.44000000    33.81000000     2.56000000
   C     44.02000000    33.77000000     3.13000000
   O     43.02000000    33.58000000     2.41000000
   O     43.89000000    33.81000000     4.37000000
   H     45.14000000    35.56000000     4.38000000
   H     47.18000000    34.97000000     2.54000000
   H     46.02000000    33.15000000     3.20000000
   H     45.38000000    33.41000000     1.55000000
   N     46.72000000    36.52000000     0.65000000
   C     46.54000000    37.31000000    -0.55000000
   C     47.68000000    37.05000000    -1.51000000
   O     48.41000000    38.00000000    -1.80000000
   C     46.42000000    38.78000000    -0.16000000
   C     45.05000000    39.26000000     0.31000000
   C     44.03000000    39.39000000    -0.82000000
   C     42.63000000    39.85000000    -0.44000000
   N     41.98000000    38.88000000     0.46000000
   H     47.64000000    36.13000000     0.82000000
   H     45.62000000    36.96000000    -1.02000000
   H     46.63000000    39.43000000    -1.01000000
   H     47.19000000    39.12000000     0.54000000
   H     45.08000000    40.22000000     0.82000000
   H     44.60000000    38.56000000     1.02000000
   H     43.94000000    38.38000000    -1.21000000
   H     44.48000000    40.01000000    -1.60000000
   H     42.02000000    40.02000000    -1.33000000
   H     42.84000000    40.83000000    -0.01000000
   H     42.46000000    38.77000000     1.34000000
   H     41.05000000    39.17000000     0.73000000
   H     41.97000000    38.01000000    -0.06000000
   N     48.07000000    35.85000000    -1.95000000
   C     47.50000000    34.52000000    -1.80000000
   C     46.01000000    34.51000000    -2.10000000
   O     45.15000000    34.39000000    -1.23000000
   C     47.93000000    33.93000000    -0.47000000
   C     49.20000000    34.56000000     0.08000000
   O     50.29000000    34.39000000    -0.52000000
   O     49.28000000    35.04000000     1.23000000
   H     48.94000000    35.90000000    -2.47000000
   H     47.94000000    33.92000000    -2.59000000
   H     48.16000000    32.87000000    -0.61000000
   H     47.09000000    34.03000000     0.22000000
   N     45.52000000    34.69000000    -3.32000000
   C     46.22000000    34.80000000    -4.58000000
   C     45.34000000    34.35000000    -5.74000000
   O     44.80000000    35.17000000    -6.48000000
   H     44.51000000    34.81000000    -3.30000000
   H     47.12000000    34.18000000    -4.57000000
   H     46.59000000    35.81000000    -4.71000000
   N     45.16000000    33.06000000    -6.02000000
   C     45.91000000    31.93000000    -5.49000000
   C     45.37000000    31.56000000    -4.11000000
   O     44.16000000    31.58000000    -3.93000000
   C     45.66000000    30.78000000    -6.46000000
   C     46.29000000    29.45000000    -6.06000000
   O     47.40000000    29.48000000    -5.48000000
   O     45.66000000    28.40000000    -6.32000000
   H     44.50000000    32.90000000    -6.76000000
   H     46.94000000    32.26000000    -5.49000000
   H     45.89000000    31.05000000    -7.49000000
   H     44.58000000    30.64000000    -6.52000000
   N     46.23000000    31.28000000    -3.13000000
   C     45.74000000    30.85000000    -1.84000000
   C     46.84000000    30.48000000    -0.85000000
   O     46.69000000    30.76000000     0.34000000
   H     47.21000000    31.10000000    -3.33000000
   H     45.09000000    29.98000000    -1.97000000
   H     45.11000000    31.63000000    -1.41000000
   N     47.98000000    29.91000000    -1.23000000
   C     49.04000000    29.52000000    -0.31000000
   C     49.71000000    30.73000000     0.32000000
   O     50.35000000    31.57000000    -0.32000000
   C     50.07000000    28.67000000    -1.04000000
   C     49.41000000    27.45000000    -1.69000000
   O     51.05000000    28.23000000    -0.13000000
   H     48.01000000    29.60000000    -2.19000000
   H     48.58000000    28.84000000     0.40000000
   H     50.55000000    29.35000000    -1.74000000
   H     51.59000000    27.54000000    -0.53000000
   H     49.35000000    26.74000000    -0.87000000
   H     48.39000000    27.63000000    -2.04000000
   H     50.18000000    27.15000000    -2.40000000
   N     49.61000000    30.86000000     1.64000000
   C     50.21000000    31.88000000     2.48000000
   C     51.68000000    32.10000000     2.15000000
   O     52.02000000    33.25000000     1.89000000
   C     49.92000000    31.73000000     3.97000000
   C     50.47000000    32.72000000     4.98000000
   C     50.35000000    30.36000000     4.48000000
   C     50.04000000    34.16000000     4.68000000
   H     49.16000000    30.06000000     2.07000000
   H     49.77000000    32.84000000     2.19000000
   H     48.83000000    31.78000000     4.02000000
   H     51.55000000    32.56000000     4.99000000
   H     50.05000000    32.47000000     5.96000000
   H     51.40000000    30.38000000     4.77000000
   H     49.95000000    30.29000000     5.48000000
   H     50.01000000    29.51000000     3.87000000
   H     50.56000000    34.80000000     5.39000000
   H     50.48000000    34.37000000     3.71000000
   H     48.96000000    34.26000000     4.75000000
   N     52.49000000    31.04000000     2.12000000
   C     53.85000000    30.95000000     1.64000000
   C     54.91000000    31.72000000     2.42000000
   O     55.90000000    31.08000000     2.75000000
   C     53.88000000    31.10000000     0.12000000
   C     55.20000000    30.60000000    -0.47000000
   O     53.64000000    32.40000000    -0.36000000
   H     52.18000000    30.20000000     2.58000000
   H     54.15000000    29.92000000     1.79000000
   H     53.13000000    30.45000000    -0.33000000
   H     52.89000000    32.38000000    -0.95000000
   H     55.04000000    30.59000000    -1.55000000
   H     55.98000000    31.33000000    -0.23000000
   H     55.54000000    29.65000000    -0.07000000
   N     54.68000000    33.00000000     2.75000000
   C     55.44000000    33.79000000     3.70000000
   C     56.84000000    34.10000000     3.18000000
   O     57.36000000    33.42000000     2.30000000
   C     55.28000000    33.11000000     5.06000000
   C     55.32000000    34.16000000     6.17000000
   O     56.41000000    32.28000000     5.22000000
   H     53.79000000    33.35000000     2.44000000
   H     54.99000000    34.78000000     3.72000000
   H     54.34000000    32.58000000     5.07000000
   H     56.30000000    31.52000000     4.64000000
   H     54.30000000    34.52000000     6.27000000
   H     55.59000000    33.73000000     7.14000000
   H     55.90000000    35.04000000     5.92000000
   N     57.49000000    35.11000000     3.76000000
   C     58.88000000    35.41000000     3.45000000
   C     59.16000000    36.67000000     2.66000000
   O     60.06000000    36.63000000     1.82000000
   C     59.65000000    35.42000000     4.76000000
   C     59.31000000    34.44000000     5.89000000
   C     59.64000000    33.02000000     5.44000000
   C     59.24000000    32.08000000     6.57000000
   N     59.45000000    30.65000000     6.30000000
   H     56.97000000    35.65000000     4.43000000
   H     59.33000000    34.60000000     2.87000000
   H     59.63000000    36.45000000     5.11000000
   H     60.71000000    35.25000000     4.57000000
   H     58.29000000    34.54000000     6.26000000
   H     59.96000000    34.64000000     6.74000000
   H     60.69000000    32.91000000     5.15000000
   H     59.14000000    32.80000000     4.50000000
   H     58.17000000    32.19000000     6.74000000
   H     59.83000000    32.25000000     7.47000000
   H     58.90000000    30.21000000     5.58000000
   H     60.41000000    30.45000000     6.08000000
   H     59.32000000    30.10000000     7.14000000
   N     58.52000000    37.84000000     2.80000000
   C     57.31000000    38.27000000     3.45000000
   C     57.26000000    38.03000000     4.95000000
   O     56.42000000    37.29000000     5.44000000
   C     56.07000000    37.73000000     2.74000000
   C     54.76000000    38.49000000     2.96000000
   C     53.56000000    37.74000000     2.42000000
   O     53.00000000    36.80000000     3.03000000
   O     53.11000000    38.15000000     1.33000000
   H     58.83000000    38.52000000     2.12000000
   H     57.18000000    39.35000000     3.39000000
   H     55.76000000    36.77000000     3.13000000
   H     56.15000000    37.62000000     1.66000000
   H     54.90000000    39.48000000     2.53000000
   H     54.58000000    38.81000000     3.99000000
   N     58.15000000    38.72000000     5.68000000
   C     58.20000000    38.67000000     7.13000000
   H     58.29600000    39.68100000     7.52500000
   H     57.28400000    38.21700000     7.51000000
   H     59.05800000    38.07500000     7.44400000
   H     58.86000000    39.20000000     5.16000000
  Ca     51.68000000    35.82000000     1.11000000
   O     52.60000000    35.62000000    -1.59700000
   H     51.88000000    35.46000000    -2.21700000
   H     52.88000000    36.52000000    -1.79700000
   O     50.11000000    37.27000000     2.58000000
   H     49.16000000    37.17000000     2.60000000
   H     50.24000000    38.22000000     2.55000000
   O     50.52000000    37.80000000    -0.32700000
   H     49.88000000    38.46000000    -0.07700000
   H     50.43000000    37.73000000    -1.27700000
   O     54.28000000    35.16000000     0.75000000
   H     54.89000000    35.49000000     0.10000000
   H     53.99000000    34.32000000     0.40000000

Ca 1.00



