%chk=loop1.cluster121.chk
%nprocshared=20
%mem=10GB
%nosave
#b3lyp/svp scf=(tight,noincore,xqc) Test 
#IOP(5/87=12) Density=Current Pop=(MK,readradii) iop(6/33=2) iop(6/42=6)

loop1.cluster121 

   0  1 
   C     46.75000000    39.38000000     8.29000000
   C     47.10000000    39.24000000     6.81000000
   O     47.99000000    39.91000000     6.28000000
   H     45.71200000    39.08700000     8.44600000
   H     47.40100000    38.73600000     8.88100000
   H     46.88500000    40.41600000     8.60000000
   N     46.46000000    38.32000000     6.10000000
   C     46.73000000    37.94000000     4.73000000
   C     45.94000000    38.78000000     3.73000000
   O     45.21000000    38.23000000     2.91000000
   C     46.61000000    36.45000000     4.44000000
   C     45.25000000    35.90000000     4.86000000
   O     44.52000000    35.42000000     3.97000000
   O     44.78000000    36.14000000     5.99000000
   H     45.80000000    37.71000000     6.58000000
   H     47.79000000    38.10000000     4.48000000
   H     47.29000000    35.91000000     5.10000000
   H     46.88000000    36.23000000     3.41000000
   N     46.17000000    40.09000000     3.74000000
   C     45.82000000    41.14000000     2.81000000
   C     46.92000000    42.14000000     2.49000000
   O     47.32000000    42.87000000     3.39000000
   C     44.75000000    42.06000000     3.38000000
   C     43.49000000    41.31000000     3.80000000
   C     42.61000000    40.93000000     2.62000000
   C     41.26000000    40.36000000     3.06000000
   N     41.27000000    39.02000000     3.66000000
   H     46.77000000    40.37000000     4.51000000
   H     45.43000000    40.77000000     1.86000000
   H     44.46000000    42.78000000     2.62000000
   H     45.02000000    42.60000000     4.30000000
   H     42.88000000    42.01000000     4.37000000
   H     43.62000000    40.43000000     4.42000000
   H     43.25000000    40.30000000     2.00000000
   H     42.41000000    41.88000000     2.12000000
   H     40.57000000    40.33000000     2.21000000
   H     40.84000000    40.96000000     3.86000000
   H     41.55000000    38.30000000     3.01000000
   H     41.96000000    38.99000000     4.40000000
   H     40.37000000    38.72000000     4.03000000
   N     47.50000000    42.23000000     1.29000000
   C     47.45000000    41.32000000     0.17000000
   C     46.13000000    41.37000000    -0.58000000
   O     45.20000000    42.08000000    -0.19000000
   C     47.94000000    39.93000000     0.57000000
   C     49.21000000    40.04000000     1.41000000
   O     50.27000000    40.19000000     0.77000000
   O     49.21000000    39.93000000     2.65000000
   H     48.08000000    43.05000000     1.15000000
   H     48.28000000    41.60000000    -0.47000000
   H     48.21000000    39.26000000    -0.25000000
   H     47.21000000    39.47000000     1.24000000
   N     45.99000000    40.76000000    -1.76000000
   C     47.04000000    40.17000000    -2.57000000
   C     46.78000000    40.16000000    -4.07000000
   O     46.02000000    40.98000000    -4.58000000
   H     45.06000000    40.68000000    -2.14000000
   H     47.03000000    39.14000000    -2.23000000
   H     48.01000000    40.63000000    -2.37000000
   N     47.22000000    39.16000000    -4.84000000
   C     48.12000000    38.06000000    -4.55000000
   C     47.26000000    36.88000000    -4.12000000
   O     46.31000000    36.51000000    -4.80000000
   C     49.00000000    37.72000000    -5.75000000
   C     49.88000000    36.49000000    -5.57000000
   O     51.00000000    36.68000000    -5.05000000
   O     49.38000000    35.36000000    -5.76000000
   H     46.94000000    39.30000000    -5.80000000
   H     48.89000000    38.24000000    -3.79000000
   H     49.61000000    38.61000000    -5.92000000
   H     48.42000000    37.65000000    -6.68000000
   N     47.43000000    36.47000000    -2.86000000
   C     46.66000000    35.47000000    -2.16000000
   C     46.99000000    35.22000000    -0.69000000
   O     46.17000000    35.62000000     0.13000000
   H     48.25000000    36.77000000    -2.35000000
   H     46.72000000    34.52000000    -2.68000000
   H     45.60000000    35.72000000    -2.14000000
   N     48.16000000    34.62000000    -0.45000000
   C     48.75000000    34.27000000     0.83000000
   C     49.40000000    35.53000000     1.39000000
   O     49.66000000    36.46000000     0.63000000
   C     49.82000000    33.19000000     0.71000000
   C     49.41000000    31.99000000    -0.14000000
   O     50.11000000    32.62000000     1.96000000
   H     48.61000000    34.37000000    -1.32000000
   H     48.04000000    33.87000000     1.56000000
   H     50.76000000    33.58000000     0.33000000
   H     49.85000000    31.70000000     1.84000000
   H     48.40000000    31.78000000     0.22000000
   H     49.32000000    32.26000000    -1.19000000
   H     50.06000000    31.12000000    -0.09000000
   N     49.78000000    35.56000000     2.67000000
   C     50.40000000    36.67000000     3.37000000
   C     51.71000000    37.13000000     2.75000000
   O     52.12000000    38.29000000     2.78000000
   C     50.51000000    36.43000000     4.87000000
   C     50.93000000    37.71000000     5.59000000
   C     51.27000000    35.18000000     5.32000000
   C     50.73000000    37.62000000     7.11000000
   H     49.43000000    34.84000000     3.27000000
   H     49.80000000    37.58000000     3.27000000
   H     49.51000000    36.10000000     5.15000000
   H     50.22000000    38.42000000     5.17000000
   H     51.96000000    37.98000000     5.38000000
   H     51.28000000    35.02000000     6.40000000
   H     50.85000000    34.28000000     4.86000000
   H     52.30000000    35.27000000     4.99000000
   H     49.80000000    37.10000000     7.31000000
   H     51.47000000    36.92000000     7.49000000
   H     50.76000000    38.55000000     7.66000000
   N     52.43000000    36.13000000     2.25000000
   C     53.84000000    36.23000000     1.93000000
   C     54.66000000    36.34000000     3.20000000
   O     55.36000000    35.36000000     3.44000000
   C     54.31000000    37.12000000     0.78000000
   C     55.68000000    36.66000000     0.31000000
   O     54.53000000    38.46000000     1.12000000
   H     51.98000000    35.24000000     2.08000000
   H     54.02000000    35.23000000     1.52000000
   H     53.58000000    36.99000000    -0.03000000
   H     55.08000000    38.84000000     0.43000000
   H     55.65000000    35.60000000     0.06000000
   H     56.02000000    37.21000000    -0.58000000
   H     56.39000000    36.75000000     1.13000000
   N     54.66000000    37.40000000     4.02000000
   C     55.51000000    37.60000000     5.17000000
   C     57.01000000    37.82000000     4.96000000
   O     57.52000000    37.50000000     3.90000000
   C     55.22000000    36.53000000     6.21000000
   C     55.07000000    37.26000000     7.54000000
   O     56.23000000    35.55000000     6.37000000
   H     54.07000000    38.19000000     3.78000000
   H     55.11000000    38.55000000     5.52000000
   H     54.29000000    35.99000000     6.07000000
   H     55.98000000    34.95000000     5.66000000
   H     54.76000000    36.57000000     8.32000000
   H     56.03000000    37.55000000     7.95000000
   H     54.37000000    38.10000000     7.48000000
   N     57.78000000    38.38000000     5.90000000
   C     59.20000000    38.63000000     5.82000000
   C     59.88000000    39.96000000     5.51000000
   O     61.02000000    40.06000000     5.08000000
   C     59.92000000    38.01000000     7.01000000
   C     59.59000000    36.58000000     7.45000000
   C     59.99000000    35.58000000     6.37000000
   C     60.30000000    34.21000000     6.98000000
   N     60.83000000    33.25000000     5.99000000
   H     57.35000000    38.60000000     6.79000000
   H     59.57000000    38.00000000     5.01000000
   H     59.56000000    38.63000000     7.82000000
   H     61.00000000    38.15000000     7.10000000
   H     58.52000000    36.49000000     7.61000000
   H     60.19000000    36.36000000     8.33000000
   H     60.95000000    35.94000000     5.99000000
   H     59.19000000    35.49000000     5.64000000
   H     59.47000000    33.72000000     7.49000000
   H     61.02000000    34.37000000     7.78000000
   H     61.75000000    33.51000000     5.67000000
   H     60.80000000    32.33000000     6.40000000
   H     60.21000000    33.31000000     5.19000000
   N     59.14000000    41.07000000     5.52000000
   C     57.88000000    41.47000000     6.13000000
   C     57.68000000    41.07000000     7.58000000
   O     56.80000000    40.29000000     7.93000000
   C     56.78000000    41.28000000     5.09000000
   C     55.39000000    41.71000000     5.56000000
   C     54.35000000    41.39000000     4.49000000
   O     54.06000000    40.24000000     4.09000000
   O     53.66000000    42.31000000     4.00000000
   H     59.76000000    41.84000000     5.30000000
   H     58.06000000    42.54000000     6.29000000
   H     56.72000000    40.26000000     4.73000000
   H     56.97000000    41.92000000     4.23000000
   H     55.34000000    42.80000000     5.58000000
   H     55.07000000    41.29000000     6.51000000
   N     58.60000000    41.59000000     8.40000000
   C     58.58000000    41.45000000     9.84000000
   H     57.84100000    42.13200000    10.26100000
   H     58.31800000    40.42500000    10.10200000
   H     59.56500000    41.68800000    10.24300000
   H     59.41000000    42.01000000     7.95000000
  Ca     52.42000000    40.81000000     2.10000000
   O     52.99000000    40.54000000    -0.51000000
   H     52.67000000    39.72000000    -0.87000000
   H     53.40000000    40.99000000    -1.25000000
   O     50.88000000    41.25000000     4.30000000
   H     50.88000000    41.24000000     5.26000000
   H     50.03000000    40.88000000     4.06000000
   O     51.48000000    43.35000000     2.24000000
   H     51.44000000    43.73000000     3.12000000
   H     51.28000000    44.09000000     1.66000000
   O     54.37000000    42.80000000     1.47000000
   H     54.61000000    43.64000000     1.07000000
   H     54.58000000    42.91000000     2.40000000

Ca 1.00



