%chk=loop1.cluster21.chk
%nprocshared=20
%mem=10GB
%nosave
#b3lyp/svp scf=(tight,noincore,xqc) Test 
#IOP(5/87=12) Density=Current Pop=(MK,readradii) iop(6/33=2) iop(6/42=6)

loop1.cluster21 

   0  1 
   C     37.42000000     0.24000000    37.56000000
   C     36.58000000    -1.01000000    37.78000000
   O     36.01000000    -1.62000000    36.88000000
   H     38.37100000    -0.03700000    37.10600000
   H     36.88800000     0.92400000    36.89900000
   H     37.60400000     0.72800000    38.51700000
   N     36.57000000    -1.51000000    39.02000000
   C     35.90000000    -2.71000000    39.46000000
   C     34.45000000    -2.43000000    39.85000000
   O     34.04000000    -2.82000000    40.95000000
   C     36.67000000    -3.54000000    40.48000000
   C     36.96000000    -2.77000000    41.76000000
   O     37.27000000    -3.45000000    42.76000000
   O     37.00000000    -1.52000000    41.81000000
   H     36.97000000    -1.04000000    39.82000000
   H     35.77000000    -3.36000000    38.58000000
   H     37.47000000    -4.13000000    40.03000000
   H     36.09000000    -4.42000000    40.77000000
   N     33.70000000    -1.67000000    39.06000000
   C     32.28000000    -1.38000000    39.14000000
   C     31.49000000    -1.68000000    37.88000000
   O     31.68000000    -0.89000000    36.95000000
   C     32.02000000     0.06000000    39.58000000
   C     32.35000000     0.33000000    41.05000000
   C     32.06000000     1.77000000    41.45000000
   C     32.39000000     1.91000000    42.93000000
   N     32.32000000     3.32000000    43.35000000
   H     34.17000000    -1.40000000    38.21000000
   H     31.97000000    -1.97000000    40.00000000
   H     30.94000000     0.20000000    39.59000000
   H     32.52000000     0.75000000    38.91000000
   H     33.38000000     0.07000000    41.25000000
   H     31.69000000    -0.30000000    41.65000000
   H     30.99000000     1.91000000    41.32000000
   H     32.75000000     2.47000000    40.97000000
   H     33.39000000     1.55000000    43.14000000
   H     31.65000000     1.38000000    43.53000000
   H     31.38000000     3.67000000    43.44000000
   H     32.62000000     3.46000000    44.31000000
   H     32.70000000     3.95000000    42.65000000
   N     30.84000000    -2.82000000    37.65000000
   C     30.54000000    -3.98000000    38.46000000
   C     29.82000000    -3.84000000    39.79000000
   O     29.75000000    -2.76000000    40.38000000
   C     31.89000000    -4.68000000    38.62000000
   C     32.62000000    -4.88000000    37.30000000
   O     32.01000000    -5.22000000    36.27000000
   O     33.87000000    -4.92000000    37.27000000
   H     30.32000000    -2.86000000    36.78000000
   H     29.88000000    -4.62000000    37.87000000
   H     31.66000000    -5.66000000    39.05000000
   H     32.49000000    -4.11000000    39.32000000
   N     29.17000000    -4.85000000    40.35000000
   C     29.08000000    -6.25000000    39.99000000
   C     29.27000000    -7.33000000    41.05000000
   O     29.01000000    -7.08000000    42.23000000
   H     28.53000000    -4.67000000    41.11000000
   H     29.88000000    -6.45000000    39.27000000
   H     28.18000000    -6.48000000    39.42000000
   N     29.66000000    -8.55000000    40.69000000
   C     30.21000000    -9.03000000    39.43000000
   C     31.58000000    -8.44000000    39.16000000
   O     31.87000000    -8.35000000    37.97000000
   C     30.21000000   -10.55000000    39.42000000
   C     30.75000000   -11.22000000    40.68000000
   O     31.53000000   -10.57000000    41.39000000
   O     30.50000000   -12.42000000    40.91000000
   H     29.70000000    -9.18000000    41.48000000
   H     29.45000000    -8.67000000    38.73000000
   H     30.77000000   -10.89000000    38.54000000
   H     29.18000000   -10.88000000    39.27000000
   N     32.40000000    -8.10000000    40.15000000
   C     33.68000000    -7.44000000    39.99000000
   C     34.58000000    -8.16000000    39.00000000
   O     34.84000000    -9.36000000    39.13000000
   H     32.19000000    -8.43000000    41.08000000
   H     34.20000000    -7.27000000    40.93000000
   H     33.58000000    -6.38000000    39.75000000
   N     34.95000000    -7.43000000    37.94000000
   C     35.48000000    -7.95000000    36.70000000
   C     36.42000000    -7.02000000    35.94000000
   O     36.00000000    -6.11000000    35.23000000
   C     34.33000000    -8.55000000    35.90000000
   C     34.75000000    -9.34000000    34.67000000
   O     33.37000000    -7.63000000    35.43000000
   H     34.74000000    -6.44000000    37.91000000
   H     36.05000000    -8.80000000    37.08000000
   H     33.85000000    -9.28000000    36.56000000
   H     32.76000000    -7.41000000    36.13000000
   H     35.21000000   -10.27000000    35.01000000
   H     33.83000000    -9.67000000    34.19000000
   H     35.38000000    -8.73000000    34.02000000
   N     37.71000000    -7.16000000    36.26000000
   C     38.79000000    -6.36000000    35.72000000
   C     39.88000000    -7.29000000    35.17000000
   O     41.03000000    -7.16000000    35.58000000
   C     39.17000000    -5.21000000    36.64000000
   C     40.05000000    -4.23000000    35.87000000
   C     39.73000000    -5.64000000    38.00000000
   C     40.48000000    -3.03000000    36.71000000
   H     38.01000000    -7.82000000    36.96000000
   H     38.30000000    -5.95000000    34.83000000
   H     38.24000000    -4.68000000    36.83000000
   H     39.50000000    -3.76000000    35.06000000
   H     40.96000000    -4.71000000    35.52000000
   H     40.66000000    -6.13000000    37.73000000
   H     40.03000000    -4.86000000    38.70000000
   H     39.05000000    -6.32000000    38.51000000
   H     39.59000000    -2.59000000    37.17000000
   H     41.08000000    -3.38000000    37.54000000
   H     40.87000000    -2.18000000    36.15000000
   N     39.49000000    -8.00000000    34.11000000
   C     40.38000000    -8.77000000    33.27000000
   C     40.54000000    -8.18000000    31.87000000
   O     41.32000000    -8.68000000    31.07000000
   C     40.19000000   -10.28000000    33.25000000
   C     39.14000000   -10.81000000    32.28000000
   O     39.83000000   -10.78000000    34.52000000
   H     38.53000000    -7.91000000    33.81000000
   H     41.37000000    -8.62000000    33.70000000
   H     41.17000000   -10.68000000    32.98000000
   H     40.69000000   -11.06000000    34.85000000
   H     38.18000000   -10.61000000    32.75000000
   H     39.16000000   -10.37000000    31.28000000
   H     39.27000000   -11.89000000    32.30000000
   N     39.92000000    -7.02000000    31.62000000
   C     39.83000000    -6.45000000    30.29000000
   C     39.14000000    -7.32000000    29.25000000
   O     38.82000000    -8.49000000    29.44000000
   C     41.17000000    -5.92000000    29.79000000
   C     42.01000000    -5.38000000    30.95000000
   O     40.99000000    -4.89000000    28.85000000
   H     39.27000000    -6.69000000    32.32000000
   H     39.20000000    -5.58000000    30.42000000
   H     41.72000000    -6.74000000    29.34000000
   H     41.70000000    -4.26000000    28.99000000
   H     42.82000000    -4.72000000    30.63000000
   H     41.33000000    -4.99000000    31.70000000
   H     42.54000000    -6.29000000    31.26000000
   N     38.77000000    -6.71000000    28.12000000
   C     38.26000000    -7.26000000    26.88000000
   C     36.77000000    -7.22000000    26.54000000
   O     36.37000000    -7.93000000    25.62000000
   C     39.14000000    -6.72000000    25.77000000
   C     40.28000000    -7.67000000    25.42000000
   C     41.18000000    -7.17000000    24.29000000
   C     42.24000000    -8.26000000    24.24000000
   N     42.89000000    -8.17000000    22.92000000
   H     39.10000000    -5.76000000    28.05000000
   H     38.40000000    -8.34000000    26.88000000
   H     39.44000000    -5.70000000    26.03000000
   H     38.49000000    -6.63000000    24.90000000
   H     39.85000000    -8.65000000    25.20000000
   H     40.98000000    -7.68000000    26.25000000
   H     41.62000000    -6.19000000    24.51000000
   H     40.58000000    -7.13000000    23.38000000
   H     41.81000000    -9.25000000    24.39000000
   H     42.95000000    -8.10000000    25.05000000
   H     42.81000000    -7.21000000    22.63000000
   H     43.87000000    -8.41000000    22.89000000
   H     42.42000000    -8.74000000    22.23000000
   N     35.83000000    -6.50000000    27.15000000
   C     35.95000000    -5.32000000    27.98000000
   C     36.97000000    -4.34000000    27.43000000
   O     37.91000000    -4.02000000    28.15000000
   C     35.96000000    -5.65000000    29.48000000
   C     34.54000000    -5.79000000    30.01000000
   C     34.54000000    -5.57000000    31.52000000
   O     34.36000000    -4.43000000    31.99000000
   O     34.63000000    -6.55000000    32.29000000
   H     34.89000000    -6.83000000    26.98000000
   H     35.04000000    -4.75000000    27.80000000
   H     36.25000000    -4.72000000    29.97000000
   H     36.64000000    -6.45000000    29.76000000
   H     34.24000000    -6.83000000    29.83000000
   H     33.94000000    -5.07000000    29.46000000
   N     36.83000000    -4.01000000    26.15000000
   C     37.50000000    -2.94000000    25.44000000
   H     38.48700000    -3.27700000    25.12400000
   H     36.91400000    -2.66200000    24.56400000
   H     37.60400000    -2.07700000    26.09700000
   H     35.96000000    -4.29000000    25.70000000
  Ca     33.75000000    -5.09000000    34.42000000
   O     35.13000000    -2.76000000    34.76000000
   H     35.36000000    -2.26000000    35.54000000
   H     35.20000000    -2.12000000    34.04000000
   O     32.15000000    -2.91000000    34.24000000
   H     31.21000000    -3.08000000    34.29000000
   H     32.22000000    -1.96000000    34.12000000
   O     31.62000000    -6.12000000    33.49000000
   H     31.09000000    -5.72000000    32.81000000
   H     31.23000000    -6.99000000    33.63000000

Ca 1.00



