%chk=loop2.cluster217.chk
%nprocshared=20
%mem=10GB
%nosave
#b3lyp/svp scf=(tight,noincore,xqc) Test 
#IOP(5/87=12) Density=Current Pop=(MK,readradii) iop(6/33=2) iop(6/42=6)

loop2.cluster217 

   -2  1 
   C     94.73000000    98.79000000    29.11000000
   C     94.62000000   100.10000000    29.88000000
   O     93.57000000   100.74000000    29.83000000
   H     95.76100000    98.43900000    29.13800000
   H     94.08000000    98.04400000    29.56700000
   H     94.42900000    98.95000000    28.07500000
   N     95.70000000   100.34000000    30.63000000
   C     95.88000000   101.59000000    31.35000000
   C     95.22000000   101.59000000    32.72000000
   O     95.67000000   102.29000000    33.63000000
   C     97.37000000   101.92000000    31.27000000
   C     97.70000000   103.37000000    31.60000000
   O     98.90000000   103.65000000    31.78000000
   O     96.88000000   104.32000000    31.66000000
   H     96.47000000    99.70000000    30.58000000
   H     95.40000000   102.37000000    30.76000000
   H     97.73000000   101.80000000    30.25000000
   H     97.85000000   101.24000000    31.98000000
   N     94.11000000   100.86000000    32.83000000
   C     93.36000000   100.75000000    34.06000000
   C     93.61000000    99.44000000    34.79000000
   O     93.65000000    98.35000000    34.23000000
   C     91.89000000   100.78000000    33.65000000
   H     93.64000000   100.50000000    32.01000000
   H     93.48000000   101.63000000    34.70000000
   H     91.59000000    99.89000000    33.09000000
   H     91.21000000   100.96000000    34.49000000
   H     91.74000000   101.59000000    32.93000000
   N     94.01000000    99.52000000    36.06000000
   C     94.18000000   100.66000000    36.93000000
   C     95.06000000   100.38000000    38.15000000
   O     95.36000000    99.22000000    38.39000000
   C     92.80000000   101.08000000    37.43000000
   C     92.80000000   102.46000000    38.08000000
   O     93.74000000   103.28000000    37.97000000
   O     91.75000000   102.72000000    38.71000000
   H     94.36000000    98.66000000    36.46000000
   H     94.64000000   101.44000000    36.32000000
   H     92.60000000   100.38000000    38.24000000
   H     91.99000000   100.96000000    36.71000000
   N     95.51000000   101.45000000    38.81000000
   C     96.45000000   101.34000000    39.91000000
   C     97.82000000   100.89000000    39.42000000
   O     98.24000000   101.33000000    38.36000000
   H     95.24000000   102.37000000    38.49000000
   H     96.00000000   100.64000000    40.62000000
   H     96.48000000   102.27000000    40.47000000
   N     98.54000000   100.21000000    40.32000000
   C     98.20000000    99.65000000    41.61000000
   C     97.50000000    98.31000000    41.61000000
   O     97.60000000    97.55000000    42.57000000
   C     99.45000000    99.70000000    42.49000000
   C     99.27000000    99.66000000    44.00000000
   N    100.33000000    99.33000000    44.74000000
   O     98.17000000    99.90000000    44.51000000
   H     99.51000000   100.06000000    40.09000000
   H     97.54000000   100.35000000    42.13000000
   H    100.03000000   100.62000000    42.36000000
   H    100.04000000    98.80000000    42.32000000
   H    101.27000000    99.26000000    44.39000000
   H    100.19000000    99.28000000    45.74000000
   N     96.88000000    98.00000000    40.46000000
   C     95.97000000    96.88000000    40.33000000
   C     94.67000000    97.14000000    41.07000000
   O     94.35000000    96.43000000    42.03000000
   H     96.81000000    98.66000000    39.71000000
   H     96.43000000    95.96000000    40.69000000
   H     95.69000000    96.63000000    39.30000000
   N     94.01000000    98.24000000    40.69000000
   C     92.94000000    98.82000000    41.47000000
   C     91.64000000    98.90000000    40.69000000
   O     91.18000000    99.99000000    40.35000000
   C     93.39000000   100.15000000    42.08000000
   C     92.52000000   100.76000000    43.17000000
   O     94.69000000   100.02000000    42.61000000
   H     94.19000000    98.59000000    39.77000000
   H     92.73000000    98.15000000    42.31000000
   H     93.45000000   100.88000000    41.28000000
   H     95.08000000   100.85000000    42.92000000
   H     93.13000000   101.39000000    43.83000000
   H     91.76000000   101.38000000    42.70000000
   H     92.11000000    99.95000000    43.77000000
   N     91.24000000    97.70000000    40.25000000
   C     90.08000000    97.62000000    39.39000000
   C     88.90000000    97.48000000    40.34000000
   O     89.01000000    97.14000000    41.52000000
   C     90.10000000    96.39000000    38.48000000
   C     91.07000000    96.65000000    37.33000000
   C     90.30000000    95.12000000    39.30000000
   C     92.54000000    96.36000000    37.61000000
   H     91.49000000    96.85000000    40.74000000
   H     89.99000000    98.45000000    38.70000000
   H     89.08000000    96.37000000    38.09000000
   H     91.17000000    97.70000000    37.07000000
   H     90.78000000    96.05000000    36.47000000
   H     91.19000000    95.24000000    39.93000000
   H     89.42000000    94.73000000    39.81000000
   H     90.50000000    94.36000000    38.54000000
   H     93.06000000    96.78000000    36.75000000
   H     92.92000000    96.86000000    38.50000000
   H     92.63000000    95.28000000    37.66000000
   N     87.71000000    97.83000000    39.84000000
   C     86.44000000    97.68000000    40.53000000
   C     85.35000000    96.98000000    39.73000000
   O     85.03000000    97.47000000    38.64000000
   C     86.05000000    99.08000000    41.02000000
   C     87.12000000    99.91000000    41.72000000
   O     87.00000000   100.26000000    42.91000000
   O     88.08000000   100.40000000    41.09000000
   H     87.71000000    98.16000000    38.89000000
   H     86.60000000    97.16000000    41.48000000
   H     85.17000000    99.09000000    41.66000000
   H     85.84000000    99.66000000    40.12000000
   N     84.89000000    95.86000000    40.27000000
   C     83.79000000    95.14000000    39.65000000
   C     84.06000000    94.78000000    38.20000000
   O     85.13000000    94.23000000    37.93000000
   C     83.51000000    93.92000000    40.52000000
   C     82.48000000    92.94000000    40.01000000
   C     82.72000000    92.20000000    38.85000000
   C     81.26000000    92.82000000    40.68000000
   C     81.66000000    91.45000000    38.31000000
   C     80.26000000    92.00000000    40.15000000
   C     80.43000000    91.30000000    38.95000000
   H     85.34000000    95.44000000    41.07000000
   H     82.92000000    95.80000000    39.65000000
   H     83.24000000    94.32000000    41.50000000
   H     84.40000000    93.32000000    40.73000000
   H     83.62000000    92.27000000    38.25000000
   H     81.06000000    93.39000000    41.57000000
   H     81.76000000    90.87000000    37.41000000
   H     79.34000000    91.85000000    40.70000000
   H     79.68000000    90.67000000    38.49000000
   N     83.13000000    95.07000000    37.29000000
   C     83.29000000    94.86000000    35.86000000
   C     84.49000000    95.54000000    35.21000000
   O     84.85000000    95.18000000    34.09000000
   C     82.04000000    95.36000000    35.15000000
   C     81.05000000    95.05000000    36.28000000
   C     81.74000000    95.34000000    37.61000000
   H     83.41000000    93.80000000    35.67000000
   H     82.09000000    96.42000000    34.90000000
   H     81.72000000    94.75000000    34.30000000
   H     80.15000000    95.65000000    36.24000000
   H     80.94000000    93.97000000    36.26000000
   H     81.59000000    96.37000000    37.92000000
   H     81.32000000    94.70000000    38.39000000
   N     85.26000000    96.36000000    35.93000000
   C     86.53000000    96.82000000    35.41000000
   C     87.55000000    95.72000000    35.20000000
   O     88.48000000    95.95000000    34.44000000
   C     87.08000000    98.00000000    36.21000000
   C     88.21000000    98.79000000    35.55000000
   C     88.32000000   100.09000000    36.33000000
   O     88.90000000   100.02000000    37.43000000
   O     87.75000000   101.11000000    35.89000000
   H     85.03000000    96.48000000    36.91000000
   H     86.40000000    97.27000000    34.43000000
   H     87.28000000    97.71000000    37.24000000
   H     86.24000000    98.70000000    36.29000000
   H     87.95000000    98.99000000    34.51000000
   H     89.16000000    98.27000000    35.62000000
   N     87.37000000    94.53000000    35.78000000
   C     88.13000000    93.31000000    35.58000000
   H     89.08600000    93.38900000    36.09800000
   H     87.57100000    92.46300000    35.97800000
   H     88.30600000    93.16100000    34.51500000
   H     86.57000000    94.46000000    36.40000000
  Ca     89.35000000   101.79100000    39.32000000
   O     88.71000000   103.28100000    37.17000000
   H     88.50000000   102.55100000    36.58000000
   H     87.94000000   103.84100000    37.14000000
   O     90.18000000   103.52100000    41.08000000
   H     89.96000000   103.63100000    42.01000000
   H     90.92000000   104.11100000    40.94000000

Ca 1.00



