%chk=loop3.cluster106.chk
%nprocshared=20
%mem=10GB
%nosave
#b3lyp/svp scf=(tight,noincore,xqc) Test 
#IOP(5/87=12) Density=Current Pop=(MK,readradii) iop(6/33=2) iop(6/42=6)

loop3.cluster106 

   0  1 
   C     52.88000000    55.70000000    41.70000000
   C     53.54000000    55.72000000    43.06000000
   O     52.84000000    55.82000000    44.06000000
   H     51.98500000    56.32200000    41.72200000
   H     53.57300000    56.08800000    40.95300000
   H     52.60500000    54.67700000    41.44400000
   N     54.87000000    55.58000000    43.06000000
   C     55.72000000    55.67000000    44.23000000
   C     55.76000000    56.97000000    45.02000000
   O     56.85000000    57.37000000    45.42000000
   C     55.35000000    54.60000000    45.26000000
   C     55.10000000    53.24000000    44.64000000
   O     54.59000000    52.36000000    45.36000000
   O     55.31000000    52.96000000    43.44000000
   H     55.37000000    55.58000000    42.18000000
   H     56.77000000    55.55000000    43.99000000
   H     54.47000000    54.90000000    45.83000000
   H     56.25000000    54.41000000    45.85000000
   N     54.60000000    57.55000000    45.36000000
   C     54.60000000    58.71000000    46.22000000
   C     55.10000000    58.58000000    47.65000000
   O     55.27000000    59.55000000    48.39000000
   C     53.23000000    59.38000000    46.11000000
   C     52.20000000    58.74000000    47.04000000
   C     51.87000000    57.30000000    46.69000000
   C     50.84000000    56.67000000    47.63000000
   N     51.07000000    55.23000000    47.78000000
   H     53.78000000    57.31000000    44.82000000
   H     55.33000000    59.41000000    45.82000000
   H     52.91000000    59.54000000    45.08000000
   H     53.38000000    60.42000000    46.39000000
   H     51.30000000    59.35000000    47.10000000
   H     52.56000000    58.87000000    48.06000000
   H     52.75000000    56.67000000    46.77000000
   H     51.45000000    57.25000000    45.69000000
   H     49.87000000    56.78000000    47.14000000
   H     50.96000000    57.26000000    48.54000000
   H     51.24000000    54.82000000    46.88000000
   H     51.87000000    55.19000000    48.39000000
   H     50.32000000    54.75000000    48.27000000
   N     55.51000000    57.37000000    48.03000000
   C     55.92000000    57.12000000    49.39000000
   C     57.06000000    56.11000000    49.32000000
   O     57.23000000    55.27000000    48.44000000
   C     54.86000000    56.64000000    50.38000000
   C     53.71000000    55.87000000    49.75000000
   O     52.52000000    56.11000000    50.08000000
   O     53.83000000    54.90000000    48.97000000
   H     55.43000000    56.68000000    47.30000000
   H     56.41000000    58.01000000    49.79000000
   H     54.32000000    57.41000000    50.93000000
   H     55.25000000    55.99000000    51.17000000
   N     57.89000000    56.20000000    50.36000000
   C     58.87000000    55.20000000    50.73000000
   C     58.32000000    53.96000000    51.41000000
   O     59.05000000    53.36000000    52.20000000
   H     57.59000000    56.83000000    51.09000000
   H     59.60000000    55.74000000    51.33000000
   H     59.45000000    54.90000000    49.85000000
   N     57.03000000    53.64000000    51.29000000
   C     56.52000000    52.46000000    51.95000000
   C     56.82000000    51.17000000    51.20000000
   O     57.27000000    50.20000000    51.81000000
   C     55.03000000    52.60000000    52.24000000
   C     54.29000000    51.29000000    52.43000000
   N     54.58000000    50.53000000    53.50000000
   O     53.59000000    50.87000000    51.51000000
   H     56.47000000    54.15000000    50.61000000
   H     57.10000000    52.27000000    52.86000000
   H     54.49000000    53.01000000    51.38000000
   H     54.90000000    53.32000000    53.04000000
   H     55.22000000    50.92000000    54.18000000
   H     53.99000000    49.72000000    53.62000000
   N     56.53000000    51.13000000    49.90000000
   C     56.66000000    50.03000000    48.96000000
   C     55.52000000    49.02000000    49.08000000
   O     54.91000000    48.79000000    48.04000000
   H     56.05000000    51.92000000    49.48000000
   H     57.56000000    49.46000000    49.14000000
   H     56.73000000    50.58000000    48.03000000
   N     55.40000000    48.43000000    50.27000000
   C     54.60000000    47.29000000    50.66000000
   C     53.15000000    47.26000000    50.22000000
   O     52.64000000    46.25000000    49.74000000
   C     55.37000000    46.09000000    50.10000000
   C     56.88000000    46.21000000    50.13000000
   C     57.57000000    46.14000000    51.34000000
   C     57.54000000    46.39000000    48.91000000
   C     58.97000000    46.27000000    51.40000000
   C     58.93000000    46.37000000    48.97000000
   C     59.66000000    46.30000000    50.17000000
   O     61.02000000    46.39000000    50.20000000
   H     56.07000000    48.80000000    50.93000000
   H     54.68000000    47.17000000    51.74000000
   H     55.05000000    45.97000000    49.07000000
   H     54.97000000    45.15000000    50.48000000
   H     57.05000000    46.04000000    52.28000000
   H     56.91000000    46.46000000    48.03000000
   H     59.44000000    46.27000000    52.37000000
   H     59.50000000    46.50000000    48.05000000
   H     61.49000000    46.40000000    49.36000000
   N     52.44000000    48.39000000    50.33000000
   C     51.01000000    48.61000000    50.25000000
   C     50.20000000    47.87000000    51.30000000
   O     49.53000000    48.53000000    52.09000000
   C     50.47000000    48.32000000    48.85000000
   C     51.13000000    49.04000000    47.68000000
   C     49.00000000    48.71000000    48.64000000
   C     51.70000000    50.43000000    47.94000000
   H     52.87000000    49.24000000    50.64000000
   H     50.87000000    49.69000000    50.37000000
   H     50.67000000    47.26000000    48.69000000
   H     50.51000000    48.97000000    46.78000000
   H     52.02000000    48.44000000    47.47000000
   H     48.98000000    49.77000000    48.88000000
   H     48.70000000    48.67000000    47.60000000
   H     48.32000000    48.07000000    49.20000000
   H     52.16000000    50.65000000    48.91000000
   H     52.48000000    50.65000000    47.21000000
   H     50.87000000    51.13000000    47.84000000
   N     50.30000000    46.54000000    51.42000000
   C     49.58000000    45.87000000    52.47000000
   C     48.07000000    46.04000000    52.51000000
   O     47.49000000    46.28000000    53.57000000
   C     49.80000000    44.36000000    52.41000000
   O     51.08000000    44.00000000    51.93000000
   H     51.02000000    46.01000000    50.93000000
   H     50.03000000    46.26000000    53.38000000
   H     49.05000000    43.94000000    51.73000000
   H     49.65000000    44.02000000    53.43000000
   H     51.22000000    43.07000000    52.11000000
   N     47.43000000    45.83000000    51.36000000
   C     46.03000000    45.78000000    51.02000000
   C     45.30000000    47.11000000    51.14000000
   O     44.11000000    47.17000000    50.82000000
   C     45.39000000    44.69000000    51.88000000
   H     47.98000000    45.58000000    50.54000000
   H     46.00000000    45.41000000    49.99000000
   H     44.41000000    44.48000000    51.46000000
   H     46.01000000    43.80000000    51.84000000
   H     45.28000000    44.99000000    52.93000000
   N     46.02000000    48.14000000    51.59000000
   C     45.52000000    49.49000000    51.76000000
   C     45.47000000    50.34000000    50.49000000
   O     46.10000000    49.92000000    49.52000000
   C     46.30000000    50.18000000    52.87000000
   H     47.02000000    48.00000000    51.62000000
   H     44.47000000    49.52000000    52.07000000
   H     47.33000000    50.40000000    52.58000000
   H     45.88000000    51.18000000    52.89000000
   H     46.20000000    49.64000000    53.81000000
   N     44.87000000    51.53000000    50.55000000
   C     44.97000000    52.69000000    49.70000000
   C     44.90000000    52.49000000    48.19000000
   O     45.12000000    53.40000000    47.39000000
   C     46.23000000    53.47000000    50.05000000
   C     47.59000000    52.87000000    49.67000000
   C     48.78000000    53.55000000    50.34000000
   O     49.30000000    54.58000000    49.87000000
   O     49.12000000    53.22000000    51.50000000
   H     44.33000000    51.66000000    51.40000000
   H     44.09000000    53.31000000    49.91000000
   H     46.26000000    53.67000000    51.12000000
   H     46.15000000    54.48000000    49.66000000
   H     47.68000000    52.98000000    48.59000000
   H     47.61000000    51.82000000    49.95000000
   N     44.57000000    51.31000000    47.66000000
   C     44.33000000    51.01000000    46.27000000
   H     43.57000000    51.68700000    45.87900000
   H     45.25400000    51.13600000    45.70600000
   H     43.98300000    49.98100000    46.17400000
   H     44.41000000    50.57000000    48.33000000
  Ca     50.80000000    55.26000000    51.80000000
   O     50.13000000    56.06000000    54.22000000
   H     49.31000000    56.53000000    54.33000000
   H     50.56000000    56.12000000    55.07000000
   O     50.81000000    57.87000000    52.18000000
   H     49.94000000    58.23000000    52.38000000
   H     51.39000000    58.63000000    52.18000000
   O     53.46000000    56.07000000    53.27000000
   H     53.40000000    56.22000000    54.21000000
   H     54.39000000    56.14000000    53.07000000
   O     52.18000000    53.19000000    50.26000000
   H     52.42000000    52.35000000    50.66000000
   H     52.99000000    53.50000000    49.86000000
   O     48.13000000    55.99000000    52.09000000
   H     48.02000000    56.92000000    52.30000000
   H     47.30000000    55.59000000    52.35000000
   O     51.68000000    53.27000000    53.31000000
   H     52.17000000    53.19000000    54.13000000
   H     51.17000000    52.46000000    53.25000000

Ca 1.00



