%chk=loop2.cluster56.chk
%nprocshared=20
%mem=10GB
%nosave
#b3lyp/svp scf=(tight,noincore,xqc) Test 
#IOP(5/87=12) Density=Current Pop=(MK,readradii) iop(6/33=2) iop(6/42=6)

loop2.cluster56 

   -2  1 
   C     92.96000000    79.00000000    32.01000000
   C     94.18000000    78.38000000    32.68000000
   O     95.24000000    78.99000000    32.76000000
   H     92.16300000    79.11600000    32.74400000
   H     93.22400000    79.97700000    31.60500000
   H     92.61900000    78.35100000    31.20300000
   N     93.99000000    77.16000000    33.18000000
   C     95.02000000    76.41000000    33.87000000
   C     95.25000000    76.73000000    35.34000000
   O     95.92000000    75.99000000    36.05000000
   C     94.76000000    74.94000000    33.57000000
   C     95.95000000    74.01000000    33.43000000
   O     95.76000000    72.80000000    33.18000000
   O     97.09000000    74.51000000    33.56000000
   H     93.09000000    76.75000000    32.97000000
   H     96.02000000    76.65000000    33.49000000
   H     94.14000000    74.84000000    32.68000000
   H     94.10000000    74.58000000    34.37000000
   N     94.71000000    77.83000000    35.86000000
   C     94.76000000    78.25000000    37.25000000
   C     93.44000000    78.94000000    37.56000000
   O     92.70000000    79.34000000    36.66000000
   C     96.02000000    79.09000000    37.48000000
   H     94.21000000    78.41000000    35.21000000
   H     94.83000000    77.32000000    37.81000000
   H     95.83000000    79.95000000    36.84000000
   H     96.13000000    79.30000000    38.54000000
   H     96.88000000    78.59000000    37.03000000
   N     93.06000000    79.24000000    38.80000000
   C     93.62000000    78.71000000    40.04000000
   C     93.07000000    77.32000000    40.32000000
   O     91.98000000    76.90000000    39.92000000
   C     93.54000000    79.61000000    41.26000000
   C     94.44000000    80.82000000    41.04000000
   O     95.62000000    80.81000000    41.44000000
   O     94.06000000    81.78000000    40.33000000
   H     92.23000000    79.79000000    38.92000000
   H     94.69000000    78.54000000    39.93000000
   H     93.87000000    79.10000000    42.17000000
   H     92.54000000    80.01000000    41.42000000
   N     93.81000000    76.61000000    41.16000000
   C     93.45000000    75.30000000    41.67000000
   C     93.52000000    74.23000000    40.59000000
   O     94.40000000    74.36000000    39.74000000
   H     94.68000000    76.97000000    41.54000000
   H     92.40000000    75.43000000    41.92000000
   H     94.11000000    74.91000000    42.44000000
   N     92.54000000    73.32000000    40.54000000
   C     91.47000000    73.03000000    41.47000000
   C     90.19000000    73.85000000    41.32000000
   O     89.16000000    73.39000000    41.81000000
   C     91.17000000    71.57000000    41.13000000
   C     92.34000000    70.63000000    41.36000000
   N     92.74000000    70.42000000    42.62000000
   O     92.88000000    70.02000000    40.44000000
   H     92.73000000    72.58000000    39.88000000
   H     91.86000000    73.14000000    42.48000000
   H     90.77000000    71.46000000    40.12000000
   H     90.41000000    71.16000000    41.81000000
   H     92.19000000    70.91000000    43.32000000
   H     93.58000000    69.91000000    42.85000000
   N     90.16000000    75.02000000    40.67000000
   C     89.13000000    76.01000000    40.50000000
   C     88.97000000    76.95000000    41.69000000
   O     87.85000000    77.17000000    42.15000000
   H     91.03000000    75.27000000    40.22000000
   H     88.17000000    75.52000000    40.32000000
   H     89.33000000    76.75000000    39.72000000
   N     90.06000000    77.56000000    42.16000000
   C     90.12000000    78.32000000    43.39000000
   C     90.11000000    79.79000000    43.00000000
   O     90.88000000    80.52000000    43.62000000
   C     91.30000000    77.89000000    44.24000000
   C     91.22000000    78.12000000    45.75000000
   O     91.54000000    76.51000000    44.12000000
   H     90.93000000    77.36000000    41.70000000
   H     89.12000000    78.24000000    43.83000000
   H     92.17000000    78.44000000    43.87000000
   H     92.48000000    76.38000000    44.22000000
   H     90.64000000    77.32000000    46.22000000
   H     92.22000000    78.05000000    46.17000000
   H     90.66000000    79.05000000    45.83000000
   N     89.45000000    80.30000000    41.96000000
   C     89.61000000    81.63000000    41.39000000
   C     89.00000000    82.68000000    42.30000000
   O     88.30000000    82.32000000    43.24000000
   C     89.10000000    81.71000000    39.95000000
   C     89.90000000    80.91000000    38.94000000
   C     87.58000000    81.56000000    39.85000000
   C     89.76000000    79.39000000    38.95000000
   H     88.65000000    79.77000000    41.65000000
   H     90.68000000    81.83000000    41.30000000
   H     89.21000000    82.76000000    39.67000000
   H     90.97000000    81.08000000    39.03000000
   H     89.60000000    81.32000000    37.98000000
   H     87.42000000    80.53000000    40.16000000
   H     87.03000000    82.21000000    40.54000000
   H     87.17000000    81.74000000    38.86000000
   H     90.14000000    78.97000000    38.02000000
   H     90.23000000    78.98000000    39.84000000
   H     88.73000000    79.01000000    38.97000000
   N     89.12000000    83.98000000    42.00000000
   C     88.52000000    85.08000000    42.73000000
   C     87.38000000    85.65000000    41.91000000
   O     87.08000000    85.17000000    40.81000000
   C     89.59000000    86.08000000    43.15000000
   C     90.37000000    86.62000000    41.96000000
   O     91.38000000    85.99000000    41.60000000
   O     90.00000000    87.73000000    41.52000000
   H     89.48000000    84.20000000    41.09000000
   H     88.07000000    84.62000000    43.61000000
   H     90.27000000    85.64000000    43.89000000
   H     89.09000000    86.90000000    43.66000000
   N     86.66000000    86.64000000    42.45000000
   C     85.56000000    87.42000000    41.90000000
   C     85.74000000    87.96000000    40.49000000
   O     85.35000000    87.31000000    39.51000000
   C     84.31000000    86.56000000    42.06000000
   C     83.01000000    87.28000000    42.28000000
   C     82.19000000    87.83000000    41.29000000
   C     82.53000000    87.31000000    43.60000000
   C     80.95000000    88.41000000    41.57000000
   C     81.33000000    87.96000000    43.91000000
   C     80.50000000    88.44000000    42.89000000
   H     86.97000000    86.93000000    43.36000000
   H     85.35000000    88.27000000    42.54000000
   H     84.38000000    85.90000000    42.92000000
   H     84.22000000    86.02000000    41.11000000
   H     82.53000000    87.80000000    40.26000000
   H     83.10000000    86.93000000    44.43000000
   H     80.32000000    88.82000000    40.79000000
   H     81.00000000    88.04000000    44.94000000
   H     79.53000000    88.89000000    43.05000000
   N     86.51000000    89.04000000    40.35000000
   C     86.90000000    89.63000000    39.09000000
   C     87.44000000    88.61000000    38.10000000
   O     87.03000000    88.59000000    36.94000000
   C     87.93000000    90.71000000    39.43000000
   C     87.27000000    91.19000000    40.72000000
   C     86.76000000    89.95000000    41.45000000
   H     85.99000000    90.08000000    38.71000000
   H     88.93000000    90.30000000    39.55000000
   H     87.93000000    91.48000000    38.67000000
   H     88.00000000    91.71000000    41.34000000
   H     86.39000000    91.80000000    40.53000000
   H     87.48000000    89.49000000    42.13000000
   H     85.92000000    90.23000000    42.08000000
   N     88.18000000    87.60000000    38.57000000
   C     88.77000000    86.61000000    37.69000000
   C     87.76000000    85.63000000    37.12000000
   O     87.88000000    85.36000000    35.93000000
   C     89.80000000    85.87000000    38.54000000
   C     90.58000000    84.78000000    37.80000000
   C     91.70000000    84.39000000    38.75000000
   O     91.45000000    83.67000000    39.73000000
   O     92.85000000    84.83000000    38.55000000
   H     88.39000000    87.52000000    39.55000000
   H     89.32000000    87.08000000    36.87000000
   H     89.28000000    85.39000000    39.37000000
   H     90.49000000    86.59000000    38.97000000
   H     91.04000000    85.41000000    37.04000000
   H     89.90000000    84.02000000    37.40000000
   N     86.79000000    85.11000000    37.88000000
   C     85.71000000    84.27000000    37.40000000
   H     84.86200000    84.89500000    37.11800000
   H     86.04800000    83.70400000    36.53200000
   H     85.40700000    83.58100000    38.18800000
   H     86.73000000    85.44000000    38.83000000
  Ca     93.35000000    84.15000000    41.23000000
   O     92.36000000    82.73000000    43.35000000
   H     91.46000000    82.44000000    43.48000000
   H     92.85000000    82.33000000    44.06000000
   O     93.76000000    86.80000000    40.72000000
   H     92.82000000    86.89000000    40.58000000
   H     94.00000000    87.58000000    41.21000000
   O     95.98000000    84.35000000    39.47000000
   H     95.79000000    84.69000000    38.59000000
   H     96.72000000    83.76000000    39.34000000
   O     95.68000000    83.32000000    42.30000000
   H     96.59000000    83.38000000    42.61000000
   H     95.66000000    82.52000000    41.79000000

Ca 1.00



