%chk=loop3.cluster33.chk
%nprocshared=20
%mem=10GB
%nosave
#b3lyp/svp scf=(tight,noincore,xqc) Test 
#IOP(5/87=12) Density=Current Pop=(MK,readradii) iop(6/33=2) iop(6/42=6)

loop3.cluster33 

   0  1 
   C     58.29000000    48.60000000    42.20000000
   C     57.54000000    48.51000000    43.52000000
   O     57.87000000    47.63000000    44.31000000
   H     59.29000000    48.18400000    42.32200000
   H     57.75300000    48.03600000    41.43700000
   H     58.36600000    49.64400000    41.89500000
   N     56.45000000    49.27000000    43.67000000
   C     55.60000000    49.27000000    44.84000000
   C     54.63000000    48.11000000    44.96000000
   O     53.45000000    48.14000000    44.62000000
   C     54.99000000    50.67000000    44.90000000
   C     54.08000000    50.79000000    46.11000000
   O     53.11000000    51.59000000    46.07000000
   O     54.19000000    50.07000000    47.13000000
   H     56.15000000    49.86000000    42.90000000
   H     56.31000000    49.25000000    45.67000000
   H     54.42000000    50.86000000    43.99000000
   H     55.81000000    51.38000000    44.96000000
   N     55.16000000    47.08000000    45.63000000
   C     54.58000000    45.76000000    45.53000000
   C     53.25000000    45.63000000    46.26000000
   O     52.32000000    45.08000000    45.67000000
   C     55.52000000    44.65000000    45.98000000
   C     56.88000000    44.64000000    45.29000000
   C     56.72000000    44.64000000    43.77000000
   C     57.87000000    43.90000000    43.10000000
   N     57.60000000    43.73000000    41.67000000
   H     56.01000000    47.21000000    46.16000000
   H     54.31000000    45.53000000    44.50000000
   H     55.10000000    43.68000000    45.72000000
   H     55.70000000    44.66000000    47.06000000
   H     57.37000000    43.75000000    45.69000000
   H     57.34000000    45.58000000    45.59000000
   H     56.56000000    45.66000000    43.43000000
   H     55.80000000    44.12000000    43.51000000
   H     57.95000000    42.91000000    43.55000000
   H     58.75000000    44.54000000    43.23000000
   H     57.30000000    44.61000000    41.26000000
   H     58.32000000    43.27000000    41.13000000
   H     56.79000000    43.15000000    41.55000000
   N     53.17000000    46.19000000    47.47000000
   C     52.00000000    46.32000000    48.31000000
   C     51.11000000    47.49000000    47.90000000
   O     50.03000000    47.63000000    48.48000000
   C     52.42000000    46.37000000    49.78000000
   C     53.58000000    47.34000000    49.94000000
   O     54.75000000    47.05000000    49.61000000
   O     53.30000000    48.54000000    50.17000000
   H     54.06000000    46.49000000    47.84000000
   H     51.38000000    45.43000000    48.32000000
   H     52.75000000    45.38000000    50.11000000
   H     51.59000000    46.61000000    50.45000000
   N     51.50000000    48.37000000    46.97000000
   C     50.75000000    49.55000000    46.59000000
   C     50.63000000    50.70000000    47.58000000
   O     49.75000000    51.53000000    47.40000000
   H     52.37000000    48.18000000    46.49000000
   H     49.79000000    49.16000000    46.25000000
   H     51.37000000    49.89000000    45.76000000
   N     51.36000000    50.73000000    48.69000000
   C     51.08000000    51.75000000    49.69000000
   C     51.51000000    53.15000000    49.28000000
   O     51.21000000    54.12000000    49.97000000
   C     51.69000000    51.32000000    51.02000000
   C     53.20000000    51.21000000    51.21000000
   N     53.63000000    50.74000000    52.38000000
   O     53.99000000    51.43000000    50.30000000
   H     52.19000000    50.16000000    48.78000000
   H     50.00000000    51.90000000    49.74000000
   H     51.39000000    50.30000000    51.27000000
   H     51.40000000    51.96000000    51.85000000
   H     53.05000000    50.86000000    53.20000000
   H     54.62000000    50.58000000    52.50000000
   N     52.23000000    53.24000000    48.16000000
   C     52.69000000    54.47000000    47.56000000
   C     54.16000000    54.83000000    47.71000000
   O     54.57000000    55.96000000    47.44000000
   H     52.31000000    52.38000000    47.62000000
   H     52.14000000    55.33000000    47.95000000
   H     52.53000000    54.53000000    46.48000000
   N     54.97000000    53.93000000    48.28000000
   C     56.40000000    54.03000000    48.48000000
   C     57.20000000    52.74000000    48.45000000
   O     56.62000000    51.68000000    48.71000000
   C     56.57000000    54.81000000    49.79000000
   C     55.87000000    54.33000000    51.04000000
   C     54.53000000    54.71000000    51.16000000
   C     56.60000000    53.55000000    51.94000000
   C     53.91000000    54.24000000    52.32000000
   C     55.94000000    53.11000000    53.10000000
   C     54.59000000    53.46000000    53.28000000
   O     53.88000000    53.03000000    54.37000000
   H     54.54000000    53.08000000    48.61000000
   H     56.76000000    54.53000000    47.58000000
   H     56.33000000    55.85000000    49.59000000
   H     57.61000000    54.99000000    50.04000000
   H     53.95000000    55.23000000    50.41000000
   H     57.66000000    53.35000000    51.83000000
   H     52.87000000    54.48000000    52.51000000
   H     56.50000000    52.54000000    53.82000000
   H     54.33000000    52.57000000    55.08000000
   N     58.50000000    52.78000000    48.17000000
   C     59.37000000    51.69000000    47.77000000
   C     60.38000000    51.56000000    48.90000000
   O     61.04000000    52.57000000    49.15000000
   C     59.98000000    51.92000000    46.39000000
   C     58.91000000    52.04000000    45.31000000
   C     60.91000000    50.75000000    46.09000000
   C     59.39000000    52.83000000    44.09000000
   H     58.89000000    53.69000000    48.01000000
   H     58.86000000    50.73000000    47.70000000
   H     60.61000000    52.80000000    46.41000000
   H     58.07000000    52.66000000    45.65000000
   H     58.59000000    51.04000000    45.02000000
   H     61.68000000    50.73000000    46.85000000
   H     60.40000000    49.78000000    46.10000000
   H     61.34000000    50.92000000    45.10000000
   H     58.56000000    53.05000000    43.42000000
   H     59.69000000    53.77000000    44.55000000
   H     60.22000000    52.35000000    43.57000000
   N     60.43000000    50.40000000    49.56000000
   C     61.47000000    50.04000000    50.50000000
   C     62.58000000    49.31000000    49.75000000
   O     62.55000000    49.03000000    48.55000000
   C     60.71000000    49.26000000    51.56000000
   O     59.93000000    48.23000000    50.99000000
   H     59.62000000    49.80000000    49.51000000
   H     61.94000000    50.90000000    50.98000000
   H     60.09000000    49.90000000    52.20000000
   H     61.47000000    48.81000000    52.19000000
   H     59.17000000    48.64000000    50.59000000
   N     63.55000000    48.77000000    50.48000000
   C     64.71000000    48.11000000    49.91000000
   C     64.36000000    46.71000000    49.42000000
   O     64.79000000    46.30000000    48.34000000
   C     65.97000000    48.11000000    50.78000000
   H     63.56000000    48.98000000    51.47000000
   H     64.98000000    48.79000000    49.11000000
   H     66.73000000    47.69000000    50.12000000
   H     66.36000000    49.09000000    51.08000000
   H     65.77000000    47.45000000    51.62000000
   N     63.46000000    46.03000000    50.14000000
   C     63.10000000    44.66000000    49.80000000
   C     62.25000000    44.57000000    48.54000000
   O     62.28000000    43.55000000    47.86000000
   C     62.40000000    44.04000000    51.00000000
   H     63.21000000    46.39000000    51.05000000
   H     64.06000000    44.16000000    49.62000000
   H     63.14000000    44.00000000    51.80000000
   H     61.48000000    44.50000000    51.36000000
   H     62.18000000    43.00000000    50.79000000
   N     61.54000000    45.65000000    48.22000000
   C     60.76000000    45.79000000    47.01000000
   C     61.68000000    46.11000000    45.85000000
   O     61.54000000    45.49000000    44.80000000
   C     59.85000000    47.02000000    47.12000000
   C     58.77000000    46.73000000    48.15000000
   C     57.83000000    47.92000000    48.30000000
   O     56.79000000    48.05000000    47.61000000
   O     58.01000000    48.72000000    49.24000000
   H     61.58000000    46.35000000    48.95000000
   H     60.20000000    44.90000000    46.72000000
   H     59.54000000    47.32000000    46.11000000
   H     60.47000000    47.86000000    47.41000000
   H     59.24000000    46.53000000    49.11000000
   H     58.15000000    45.87000000    47.88000000
   N     62.62000000    47.07000000    45.92000000
   C     63.58000000    47.25000000    44.86000000
   H     64.52100000    46.77500000    45.13800000
   H     63.20100000    46.79600000    43.94500000
   H     63.74600000    48.31500000    44.69600000
   H     62.71000000    47.50000000    46.83000000
  Ca     55.54000000    49.53000000    49.34000000
   O     55.81000000    48.11000000    52.05000000
   H     55.88000000    47.30000000    51.54000000
   H     55.20000000    47.89000000    52.76000000
   O     56.93000000    50.85000000    51.27000000
   H     57.41000000    50.43000000    51.99000000
   H     56.76000000    51.74000000    51.59000000

Ca 1.00



