%chk=loop2.cluster180.chk
%nprocshared=20
%mem=10GB
%nosave
#b3lyp/svp scf=(tight,noincore,xqc) Test 
#IOP(5/87=12) Density=Current Pop=(MK,readradii) iop(6/33=2) iop(6/42=6)

loop2.cluster180 

   -2  1 
   C     80.60000000    43.05000000    47.74000000
   C     79.09000000    43.01000000    47.52000000
   O     78.42000000    42.03000000    47.84000000
   H     81.05600000    43.71500000    47.00700000
   H     80.81200000    43.41800000    48.74400000
   H     81.01100000    42.04700000    47.62500000
   N     78.64000000    44.02000000    46.78000000
   C     77.30000000    44.21000000    46.25000000
   C     76.47000000    44.88000000    47.34000000
   O     76.93000000    45.81000000    47.99000000
   C     77.41000000    44.94000000    44.91000000
   C     78.50000000    44.41000000    43.99000000
   O     78.46000000    43.20000000    43.66000000
   O     79.44000000    45.18000000    43.70000000
   H     79.28000000    44.79000000    46.59000000
   H     76.86000000    43.30000000    45.85000000
   H     77.64000000    45.96000000    45.22000000
   H     76.51000000    44.91000000    44.29000000
   N     75.18000000    44.52000000    47.30000000
   C     74.12000000    45.24000000    47.97000000
   C     73.78000000    44.74000000    49.36000000
   O     73.98000000    43.56000000    49.63000000
   C     72.89000000    45.25000000    47.06000000
   H     74.79000000    43.86000000    46.65000000
   H     74.38000000    46.29000000    48.00000000
   H     72.02000000    45.86000000    47.31000000
   H     73.20000000    45.58000000    46.06000000
   H     72.44000000    44.27000000    46.91000000
   N     73.22000000    45.60000000    50.22000000
   C     72.87000000    46.98000000    50.00000000
   C     73.97000000    48.01000000    50.24000000
   O     74.87000000    47.83000000    51.06000000
   C     71.62000000    47.34000000    50.81000000
   C     70.55000000    46.27000000    50.68000000
   O     70.31000000    45.48000000    51.62000000
   O     69.87000000    46.33000000    49.63000000
   H     73.26000000    45.41000000    51.21000000
   H     72.73000000    47.04000000    48.92000000
   H     71.32000000    48.32000000    50.42000000
   H     71.94000000    47.45000000    51.85000000
   N     73.82000000    49.13000000    49.53000000
   C     74.86000000    50.13000000    49.37000000
   C     75.89000000    49.68000000    48.35000000
   O     75.53000000    49.09000000    47.33000000
   H     72.97000000    49.36000000    49.03000000
   H     75.35000000    50.23000000    50.34000000
   H     74.53000000    51.11000000    49.04000000
   N     77.18000000    50.01000000    48.47000000
   C     77.82000000    51.08000000    49.21000000
   C     78.54000000    50.66000000    50.49000000
   O     78.49000000    51.37000000    51.49000000
   C     78.76000000    51.94000000    48.37000000
   C     78.11000000    52.75000000    47.26000000
   N     78.54000000    53.98000000    46.94000000
   O     77.07000000    52.39000000    46.71000000
   H     77.70000000    49.48000000    47.79000000
   H     77.04000000    51.75000000    49.56000000
   H     79.54000000    51.35000000    47.88000000
   H     79.26000000    52.59000000    49.09000000
   H     79.30000000    54.39000000    47.47000000
   H     78.15000000    54.55000000    46.20000000
   N     78.90000000    49.38000000    50.59000000
   C     79.62000000    48.85000000    51.73000000
   C     78.83000000    48.80000000    53.03000000
   O     79.43000000    48.82000000    54.11000000
   H     78.93000000    48.81000000    49.76000000
   H     80.51000000    49.47000000    51.86000000
   H     79.83000000    47.82000000    51.48000000
   N     77.50000000    48.87000000    52.97000000
   C     76.51000000    49.03000000    54.02000000
   C     75.88000000    47.70000000    54.43000000
   O     74.65000000    47.60000000    54.45000000
   C     75.52000000    50.10000000    53.58000000
   C     74.73000000    50.99000000    54.54000000
   O     76.12000000    51.15000000    52.87000000
   H     77.03000000    48.86000000    52.07000000
   H     76.99000000    49.34000000    54.94000000
   H     74.75000000    49.70000000    52.92000000
   H     77.08000000    51.13000000    52.86000000
   H     74.03000000    50.35000000    55.08000000
   H     75.35000000    51.53000000    55.26000000
   H     74.09000000    51.67000000    53.99000000
   N     76.71000000    46.69000000    54.67000000
   C     76.40000000    45.33000000    55.07000000
   C     75.46000000    45.36000000    56.27000000
   O     75.45000000    46.27000000    57.09000000
   C     77.64000000    44.46000000    55.26000000
   C     78.38000000    44.35000000    53.93000000
   C     78.66000000    44.97000000    56.27000000
   C     77.61000000    43.87000000    52.70000000
   H     77.67000000    46.96000000    54.79000000
   H     75.83000000    44.91000000    54.24000000
   H     77.37000000    43.47000000    55.63000000
   H     79.25000000    43.69000000    54.04000000
   H     78.83000000    45.32000000    53.74000000
   H     79.06000000    45.97000000    56.07000000
   H     78.21000000    45.01000000    57.26000000
   H     79.51000000    44.29000000    56.22000000
   H     78.29000000    43.75000000    51.86000000
   H     77.20000000    42.91000000    53.01000000
   H     76.79000000    44.52000000    52.40000000
   N     74.69000000    44.29000000    56.49000000
   C     73.76000000    44.12000000    57.59000000
   C     73.71000000    42.66000000    58.00000000
   O     73.68000000    41.75000000    57.17000000
   C     72.36000000    44.55000000    57.14000000
   C     71.74000000    44.05000000    55.85000000
   O     71.98000000    44.75000000    54.84000000
   O     70.92000000    43.12000000    55.76000000
   H     74.56000000    43.62000000    55.75000000
   H     74.19000000    44.64000000    58.44000000
   H     72.42000000    45.64000000    57.11000000
   H     71.67000000    44.30000000    57.95000000
   N     73.79000000    42.44000000    59.32000000
   C     73.80000000    41.14000000    59.95000000
   C     74.73000000    40.21000000    59.18000000
   O     75.92000000    40.52000000    59.12000000
   C     74.08000000    41.26000000    61.44000000
   C     73.99000000    39.99000000    62.25000000
   C     75.12000000    39.17000000    62.35000000
   C     72.78000000    39.55000000    62.80000000
   C     75.11000000    38.09000000    63.23000000
   C     72.74000000    38.40000000    63.60000000
   C     73.92000000    37.69000000    63.86000000
   H     73.80000000    43.24000000    59.94000000
   H     72.78000000    40.77000000    59.84000000
   H     73.45000000    42.07000000    61.82000000
   H     75.11000000    41.58000000    61.56000000
   H     76.00000000    39.47000000    61.79000000
   H     71.87000000    40.11000000    62.61000000
   H     76.04000000    37.59000000    63.48000000
   H     71.78000000    38.13000000    64.01000000
   H     74.02000000    36.87000000    64.55000000
   N     74.34000000    39.05000000    58.64000000
   C     75.32000000    38.09000000    58.18000000
   C     75.85000000    38.41000000    56.79000000
   O     76.66000000    37.65000000    56.27000000
   C     74.65000000    36.72000000    58.14000000
   C     73.36000000    36.87000000    58.94000000
   C     73.07000000    38.36000000    58.75000000
   H     76.12000000    38.04000000    58.92000000
   H     74.34000000    36.64000000    57.10000000
   H     75.27000000    35.85000000    58.39000000
   H     72.55000000    36.27000000    58.54000000
   H     73.48000000    36.61000000    59.99000000
   H     72.44000000    38.44000000    57.87000000
   H     72.59000000    38.73000000    59.66000000
   N     75.52000000    39.56000000    56.18000000
   C     76.15000000    40.07000000    54.98000000
   C     77.56000000    40.62000000    55.13000000
   O     78.26000000    40.66000000    54.13000000
   C     75.19000000    40.80000000    54.04000000
   C     73.91000000    40.09000000    53.58000000
   C     73.09000000    40.93000000    52.62000000
   O     72.60000000    40.45000000    51.57000000
   O     72.82000000    42.09000000    53.01000000
   H     74.77000000    40.10000000    56.57000000
   H     76.40000000    39.18000000    54.41000000
   H     75.70000000    41.25000000    53.19000000
   H     74.89000000    41.72000000    54.55000000
   H     73.29000000    39.81000000    54.43000000
   H     74.14000000    39.21000000    52.99000000
   N     78.01000000    40.89000000    56.36000000
   C     79.43000000    41.05000000    56.61000000
   H     79.93700000    41.29400000    55.67700000
   H     79.58500000    41.85500000    57.32800000
   H     79.83600000    40.12100000    57.01200000
   H     77.36000000    40.79000000    57.13000000
  Ca     70.48000000    43.20000000    52.92000000
   O     68.39000000    42.47000000    51.21000000
   H     68.13000000    41.55000000    51.18000000
   H     68.37000000    42.76000000    50.30000000
   O     69.76000000    40.59000000    53.36000000
   H     69.02000000    40.07000000    53.05000000
   H     70.13000000    40.08000000    54.08000000
   O     71.45000000    42.39000000    50.27000000
   H     72.23000000    42.89000000    50.03000000
   H     71.78000000    41.57000000    50.62000000

Ca 1.00



