%chk=loop2.cluster167.chk
%nprocshared=20
%mem=10GB
%nosave
#b3lyp/svp scf=(tight,noincore,xqc) Test 
#IOP(5/87=12) Density=Current Pop=(MK,readradii) iop(6/33=2) iop(6/42=6)

loop2.cluster167 

   -2  1 
   C     87.11000000    74.30000000    18.02000000
   C     88.60000000    74.21000000    17.73000000
   O     89.08000000    75.10000000    17.03000000
   H     86.55600000    73.77600000    17.24100000
   H     86.89900000    73.84100000    18.98600000
   H     86.80600000    75.34600000    18.04000000
   N     89.34000000    73.24000000    18.27000000
   C     90.76000000    73.00000000    18.11000000
   C     91.58000000    73.86000000    19.06000000
   O     92.55000000    73.36000000    19.64000000
   C     90.86000000    71.48000000    18.26000000
   C     92.18000000    70.91000000    17.75000000
   O     92.57000000    71.03000000    16.56000000
   O     92.75000000    70.07000000    18.47000000
   H     88.85000000    72.63000000    18.92000000
   H     91.02000000    73.23000000    17.08000000
   H     90.01000000    71.05000000    17.74000000
   H     90.78000000    71.23000000    19.32000000
   N     91.19000000    75.13000000    19.12000000
   C     91.90000000    76.13000000    19.89000000
   C     90.94000000    77.07000000    20.59000000
   O     89.78000000    77.23000000    20.21000000
   C     93.05000000    76.76000000    19.10000000
   H     90.44000000    75.44000000    18.51000000
   H     92.42000000    75.69000000    20.74000000
   H     92.78000000    77.31000000    18.20000000
   H     93.54000000    77.47000000    19.76000000
   H     93.73000000    75.96000000    18.81000000
   N     91.27000000    77.78000000    21.68000000
   C     92.51000000    77.77000000    22.42000000
   C     92.39000000    76.99000000    23.72000000
   O     91.44000000    76.33000000    24.12000000
   C     92.81000000    79.23000000    22.77000000
   C     92.86000000    80.16000000    21.57000000
   O     93.84000000    80.12000000    20.79000000
   O     91.88000000    80.89000000    21.30000000
   H     90.48000000    78.33000000    21.98000000
   H     93.37000000    77.36000000    21.87000000
   H     93.73000000    79.20000000    23.34000000
   H     92.04000000    79.67000000    23.41000000
   N     93.58000000    76.92000000    24.31000000
   C     93.90000000    75.94000000    25.33000000
   C     93.81000000    74.49000000    24.87000000
   O     94.20000000    74.18000000    23.75000000
   H     94.30000000    77.54000000    23.97000000
   H     93.26000000    76.07000000    26.21000000
   H     94.91000000    76.16000000    25.67000000
   N     93.32000000    73.56000000    25.69000000
   C     93.01000000    73.72000000    27.09000000
   C     91.72000000    74.40000000    27.53000000
   O     91.63000000    74.73000000    28.71000000
   C     92.97000000    72.31000000    27.68000000
   C     94.32000000    71.62000000    27.56000000
   N     95.27000000    71.84000000    28.47000000
   O     94.66000000    70.69000000    26.83000000
   H     93.41000000    72.61000000    25.37000000
   H     93.80000000    74.28000000    27.59000000
   H     92.21000000    71.70000000    27.20000000
   H     92.61000000    72.32000000    28.71000000
   H     95.17000000    72.56000000    29.17000000
   H     96.05000000    71.20000000    28.47000000
   N     90.79000000    74.68000000    26.62000000
   C     89.60000000    75.49000000    26.81000000
   C     89.77000000    76.93000000    27.28000000
   O     88.96000000    77.38000000    28.09000000
   H     90.91000000    74.49000000    25.63000000
   H     88.98000000    75.05000000    27.59000000
   H     89.12000000    75.54000000    25.83000000
   N     90.77000000    77.66000000    26.78000000
   C     91.06000000    79.05000000    27.04000000
   C     90.36000000    80.02000000    26.10000000
   O     90.96000000    80.94000000    25.55000000
   C     92.58000000    79.18000000    26.98000000
   C     93.06000000    80.44000000    27.71000000
   O     93.24000000    78.07000000    27.55000000
   H     91.43000000    77.17000000    26.20000000
   H     90.84000000    79.34000000    28.07000000
   H     92.91000000    79.19000000    25.94000000
   H     94.16000000    78.14000000    27.29000000
   H     92.73000000    80.40000000    28.75000000
   H     94.13000000    80.59000000    27.55000000
   H     92.69000000    81.37000000    27.29000000
   N     89.05000000    79.78000000    26.07000000
   C     88.11000000    80.34000000    25.12000000
   C     87.54000000    81.67000000    25.59000000
   O     87.74000000    82.08000000    26.73000000
   C     86.99000000    79.34000000    24.85000000
   C     87.44000000    77.90000000    24.61000000
   C     85.96000000    79.28000000    25.98000000
   C     88.60000000    77.77000000    23.63000000
   H     88.65000000    79.16000000    26.76000000
   H     88.59000000    80.49000000    24.16000000
   H     86.38000000    79.77000000    24.05000000
   H     86.59000000    77.30000000    24.30000000
   H     87.84000000    77.58000000    25.58000000
   H     85.53000000    80.25000000    26.21000000
   H     85.09000000    78.68000000    25.71000000
   H     86.35000000    78.91000000    26.93000000
   H     88.35000000    78.17000000    22.64000000
   H     89.46000000    78.35000000    23.97000000
   H     88.91000000    76.73000000    23.61000000
   N     86.75000000    82.34000000    24.75000000
   C     86.15000000    83.64000000    24.95000000
   C     84.64000000    83.69000000    24.73000000
   O     84.19000000    82.67000000    24.21000000
   C     86.84000000    84.68000000    24.07000000
   C     86.98000000    84.21000000    22.63000000
   O     88.02000000    83.59000000    22.33000000
   O     86.06000000    84.47000000    21.83000000
   H     86.77000000    82.09000000    23.77000000
   H     86.28000000    83.99000000    25.97000000
   H     87.87000000    84.77000000    24.42000000
   H     86.32000000    85.63000000    24.10000000
   N     83.95000000    84.77000000    25.10000000
   C     82.52000000    84.83000000    24.92000000
   C     81.91000000    84.32000000    23.62000000
   O     81.19000000    83.33000000    23.53000000
   C     81.85000000    84.28000000    26.18000000
   C     80.59000000    84.96000000    26.64000000
   C     79.37000000    84.37000000    26.29000000
   C     80.63000000    86.19000000    27.32000000
   C     78.20000000    84.91000000    26.85000000
   C     79.45000000    86.75000000    27.81000000
   C     78.24000000    86.06000000    27.65000000
   H     84.50000000    85.53000000    25.48000000
   H     82.31000000    85.90000000    25.03000000
   H     82.55000000    84.30000000    27.02000000
   H     81.62000000    83.25000000    25.94000000
   H     79.27000000    83.52000000    25.64000000
   H     81.57000000    86.70000000    27.45000000
   H     77.29000000    84.35000000    26.69000000
   H     79.55000000    87.73000000    28.26000000
   H     77.34000000    86.45000000    28.11000000
   N     82.39000000    84.91000000    22.52000000
   C     82.02000000    84.47000000    21.19000000
   C     82.62000000    83.15000000    20.72000000
   O     82.32000000    82.68000000    19.63000000
   C     82.45000000    85.55000000    20.21000000
   C     82.60000000    86.78000000    21.11000000
   C     83.07000000    86.18000000    22.43000000
   H     80.94000000    84.43000000    21.29000000
   H     83.47000000    85.40000000    19.86000000
   H     81.85000000    85.67000000    19.31000000
   H     83.27000000    87.50000000    20.63000000
   H     81.61000000    87.21000000    21.22000000
   H     84.15000000    86.09000000    22.38000000
   H     82.87000000    86.86000000    23.26000000
   N     83.43000000    82.51000000    21.57000000
   C     83.96000000    81.18000000    21.34000000
   C     83.35000000    80.11000000    22.24000000
   O     83.22000000    78.97000000    21.81000000
   C     85.48000000    81.36000000    21.39000000
   C     86.16000000    80.24000000    20.61000000
   C     87.59000000    80.68000000    20.34000000
   O     88.46000000    80.83000000    21.22000000
   O     87.90000000    80.84000000    19.13000000
   H     83.56000000    82.95000000    22.47000000
   H     83.67000000    80.88000000    20.34000000
   H     85.88000000    81.37000000    22.40000000
   H     85.73000000    82.28000000    20.86000000
   H     85.65000000    79.96000000    19.69000000
   H     86.04000000    79.32000000    21.18000000
   N     82.87000000    80.44000000    23.44000000
   C     82.15000000    79.54000000    24.32000000
   H     81.16500000    79.33500000    23.90200000
   H     82.70400000    78.60600000    24.41800000
   H     82.03900000    80.00200000    25.30100000
   H     83.01000000    81.40000000    23.72000000
  Ca     90.20000000    82.77000000    21.28000000
   O     90.65000000    82.94000000    23.86000000
   H     90.98000000    82.39000000    24.58000000
   H     90.57000000    83.81000000    24.25000000
   O     90.22000000    81.78000000    18.70000000
   H     90.03000000    82.32000000    17.93000000
   H     89.38000000    81.40000000    18.94000000
   O     89.41000000    84.46000000    19.50000000
   H     89.23000000    85.36000000    19.26000000
   H     88.57000000    84.01000000    19.37000000
   O     92.58000000    83.31000000    19.94000000
   H     92.51000000    84.01000000    19.29000000
   H     93.18000000    82.67000000    19.54000000

Ca 1.00



