%chk=loop4.cluster100.chk
%nprocshared=20
%mem=10GB
%nosave
#b3lyp/svp scf=(tight,noincore,xqc) Test 
#IOP(5/87=12) Density=Current Pop=(MK,readradii) iop(6/33=2) iop(6/42=6)

loop4.cluster100 

   -3  1 
   C     69.42000000    54.84000000    45.63000000
   C     68.90000000    55.39000000    46.95000000
   O     68.36000000    56.50000000    46.98000000
   H     70.44000000    54.48000000    45.76400000
   H     68.78400000    54.01700000    45.30300000
   H     69.41000000    55.62900000    44.87800000
   N     68.93000000    54.53000000    47.97000000
   C     68.57000000    54.94000000    49.31000000
   C     69.19000000    56.25000000    49.77000000
   O     70.41000000    56.31000000    49.89000000
   C     68.89000000    53.76000000    50.21000000
   C     68.61000000    54.06000000    51.67000000
   O     67.76000000    54.94000000    51.93000000
   O     69.23000000    53.37000000    52.50000000
   H     69.55000000    53.73000000    47.95000000
   H     67.50000000    55.16000000    49.29000000
   H     69.91000000    53.45000000    49.96000000
   H     68.31000000    52.89000000    49.92000000
   N     68.45000000    57.30000000    50.14000000
   C     68.96000000    58.54000000    50.71000000
   C     68.84000000    58.44000000    52.22000000
   O     69.86000000    58.63000000    52.87000000
   C     68.30000000    59.76000000    50.08000000
   C     68.46000000    59.75000000    48.56000000
   C     68.96000000    61.04000000    50.58000000
   C     67.65000000    60.82000000    47.83000000
   H     67.46000000    57.15000000    50.09000000
   H     70.03000000    58.54000000    50.50000000
   H     67.24000000    59.76000000    50.33000000
   H     68.19000000    58.74000000    48.25000000
   H     69.53000000    59.90000000    48.40000000
   H     69.99000000    61.15000000    50.26000000
   H     68.46000000    61.99000000    50.38000000
   H     69.01000000    60.93000000    51.67000000
   H     66.70000000    60.99000000    48.34000000
   H     68.27000000    61.71000000    47.82000000
   H     67.65000000    60.46000000    46.80000000
   N     67.67000000    58.20000000    52.84000000
   C     67.37000000    58.30000000    54.25000000
   C     67.82000000    57.04000000    54.98000000
   O     67.61000000    56.96000000    56.19000000
   C     65.91000000    58.67000000    54.42000000
   C     64.80000000    57.90000000    53.71000000
   O     63.68000000    58.43000000    53.53000000
   O     65.02000000    56.69000000    53.48000000
   H     66.85000000    58.05000000    52.27000000
   H     67.94000000    59.15000000    54.61000000
   H     65.90000000    59.68000000    53.99000000
   H     65.75000000    58.83000000    55.49000000
   N     68.67000000    56.20000000    54.40000000
   C     69.65000000    55.37000000    55.07000000
   C     69.05000000    54.23000000    55.87000000
   O     69.12000000    54.15000000    57.10000000
   H     68.66000000    56.22000000    53.39000000
   H     70.29000000    55.91000000    55.76000000
   H     70.26000000    54.91000000    54.29000000
   N     68.32000000    53.34000000    55.20000000
   C     67.52000000    52.25000000    55.73000000
   C     67.70000000    50.96000000    54.93000000
   O     67.37000000    49.90000000    55.46000000
   C     66.08000000    52.74000000    55.79000000
   C     65.57000000    53.36000000    54.50000000
   O     64.49000000    53.98000000    54.42000000
   O     66.12000000    53.00000000    53.44000000
   H     68.24000000    53.58000000    54.22000000
   H     67.86000000    52.09000000    56.75000000
   H     65.98000000    53.49000000    56.58000000
   H     65.43000000    51.92000000    56.07000000
   N     68.29000000    51.01000000    53.73000000
   C     68.42000000    49.86000000    52.86000000
   C     67.19000000    49.52000000    52.03000000
   O     67.08000000    48.35000000    51.68000000
   H     68.55000000    51.92000000    53.37000000
   H     68.69000000    48.98000000    53.45000000
   H     69.26000000    50.05000000    52.20000000
   N     66.30000000    50.48000000    51.75000000
   C     65.11000000    50.37000000    50.93000000
   C     64.96000000    51.58000000    50.02000000
   O     65.63000000    52.59000000    50.24000000
   C     63.91000000    50.37000000    51.87000000
   C     63.97000000    49.28000000    52.93000000
   C     62.77000000    49.35000000    53.86000000
   N     62.79000000    48.70000000    55.03000000
   O     61.74000000    49.98000000    53.66000000
   H     66.41000000    51.35000000    52.24000000
   H     65.06000000    49.46000000    50.34000000
   H     63.05000000    50.19000000    51.23000000
   H     63.83000000    51.32000000    52.41000000
   H     64.80000000    49.26000000    53.64000000
   H     63.97000000    48.31000000    52.42000000
   H     63.69000000    48.46000000    55.42000000
   H     61.94000000    48.79000000    55.56000000
   N     64.07000000    51.47000000    49.03000000
   C     63.70000000    52.46000000    48.04000000
   C     62.22000000    52.79000000    47.97000000
   O     61.44000000    51.99000000    47.46000000
   C     64.39000000    52.19000000    46.71000000
   C     63.83000000    53.15000000    45.67000000
   C     65.90000000    52.41000000    46.86000000
   H     63.77000000    50.53000000    48.82000000
   H     64.20000000    53.40000000    48.29000000
   H     64.28000000    51.13000000    46.47000000
   H     62.78000000    52.96000000    45.44000000
   H     63.86000000    54.13000000    46.14000000
   H     64.48000000    53.17000000    44.79000000
   H     66.43000000    51.75000000    47.55000000
   H     66.39000000    52.24000000    45.91000000
   H     66.09000000    53.42000000    47.21000000
   N     61.78000000    54.00000000    48.35000000
   C     60.43000000    54.48000000    48.12000000
   C     60.35000000    55.32000000    46.86000000
   O     61.41000000    55.56000000    46.28000000
   C     59.90000000    55.21000000    49.35000000
   C     60.71000000    56.41000000    49.82000000
   N     60.58000000    57.55000000    49.13000000
   O     61.53000000    56.24000000    50.72000000
   H     62.49000000    54.66000000    48.63000000
   H     59.78000000    53.61000000    47.99000000
   H     59.71000000    54.55000000    50.19000000
   H     58.88000000    55.49000000    49.10000000
   H     59.80000000    57.67000000    48.51000000
   H     61.12000000    58.35000000    49.44000000
   N     59.19000000    55.76000000    46.38000000
   C     59.08000000    56.39000000    45.08000000
   C     59.85000000    57.69000000    44.96000000
   O     60.43000000    57.90000000    43.89000000
   C     57.59000000    56.39000000    44.72000000
   C     57.42000000    57.04000000    43.37000000
   C     57.30000000    56.20000000    42.25000000
   C     57.34000000    58.43000000    43.20000000
   C     57.31000000    56.79000000    40.98000000
   C     57.13000000    58.98000000    41.93000000
   C     57.15000000    58.17000000    40.77000000
   O     56.91000000    58.64000000    39.51000000
   H     58.29000000    55.53000000    46.79000000
   H     59.56000000    55.69000000    44.39000000
   H     57.01000000    57.05000000    45.37000000
   H     57.18000000    55.38000000    44.73000000
   H     57.26000000    55.12000000    42.26000000
   H     57.31000000    59.09000000    44.05000000
   H     57.38000000    56.21000000    40.07000000
   H     57.07000000    60.05000000    41.82000000
   H     56.61000000    59.56000000    39.51000000
   N     59.87000000    58.54000000    45.99000000
   C     60.74000000    59.70000000    46.03000000
   C     62.18000000    59.43000000    45.61000000
   O     62.71000000    60.09000000    44.72000000
   C     60.75000000    60.28000000    47.44000000
   C     61.25000000    61.71000000    47.27000000
   C     61.17000000    62.45000000    48.60000000
   O     61.85000000    61.99000000    49.55000000
   O     60.61000000    63.55000000    48.72000000
   H     59.16000000    58.47000000    46.70000000
   H     60.35000000    60.44000000    45.33000000
   H     61.52000000    59.79000000    48.04000000
   H     59.73000000    60.30000000    47.82000000
   H     60.75000000    62.21000000    46.43000000
   H     62.29000000    61.71000000    46.95000000
   N     62.85000000    58.46000000    46.25000000
   C     64.18000000    57.99000000    45.95000000
   C     64.38000000    57.26000000    44.62000000
   O     65.52000000    57.20000000    44.16000000
   C     64.65000000    57.03000000    47.04000000
   C     64.70000000    57.67000000    48.42000000
   C     65.02000000    56.69000000    49.55000000
   O     65.61000000    57.06000000    50.59000000
   O     64.43000000    55.59000000    49.56000000
   H     62.31000000    57.86000000    46.86000000
   H     64.87000000    58.83000000    45.98000000
   H     65.64000000    56.66000000    46.79000000
   H     64.03000000    56.13000000    46.95000000
   H     63.83000000    58.27000000    48.69000000
   H     65.54000000    58.37000000    48.38000000
   N     63.35000000    56.61000000    44.09000000
   C     63.24000000    56.09000000    42.74000000
   H     62.71900000    56.81400000    42.11400000
   H     64.23700000    55.91200000    42.33600000
   H     62.68100000    55.15400000    42.75500000
   H     62.53000000    56.48000000    44.66000000
  Ca     65.23000000    54.85000000    51.87000000
   O     62.55000000    54.24000000    51.98000000
   H     62.22000000    55.07000000    51.64000000
   H     61.77000000    53.76000000    52.25000000

Ca 1.00



