%chk=loop2.cluster30.chk
%nprocshared=20
%mem=10GB
%nosave
#b3lyp/svp scf=(tight,noincore,xqc) Test 
#IOP(5/87=12) Density=Current Pop=(MK,readradii) iop(6/33=2) iop(6/42=6)

loop2.cluster30 

   -2  1 
   C     48.40000000    25.07000000   -21.22900000
   C     48.62000000    23.95000000   -22.23900000
   O     49.77000000    23.75000000   -22.63900000
   H     47.37100000    25.03800000   -20.87000000
   H     49.08200000    24.94100000   -20.38800000
   H     48.58800000    26.03200000   -21.70600000
   N     47.52000000    23.38000000   -22.72900000
   C     47.59000000    22.37000000   -23.76900000
   C     48.26000000    22.94000000   -25.00900000
   O     47.80000000    23.93000000   -25.56900000
   C     46.18000000    21.91000000   -24.10900000
   C     46.08000000    20.94000000   -25.26900000
   O     47.03000000    20.18000000   -25.57900000
   O     44.99000000    20.86000000   -25.87900000
   H     46.64000000    23.76000000   -22.39900000
   H     48.20000000    21.57000000   -23.33900000
   H     45.72000000    22.84000000   -24.42900000
   H     45.65000000    21.55000000   -23.21900000
   N     49.33000000    22.30000000   -25.48900000
   C     50.15000000    22.75000000   -26.59900000
   C     49.78000000    22.07000000   -27.90900000
   O     50.43000000    22.28000000   -28.91900000
   C     51.60000000    22.91000000   -26.15900000
   H     49.59000000    21.47000000   -24.97900000
   H     49.72000000    23.74000000   -26.74900000
   H     52.04000000    22.03000000   -25.68900000
   H     52.27000000    23.17000000   -26.97900000
   H     51.57000000    23.71000000   -25.41900000
   N     48.83000000    21.12000000   -27.84900000
   C     48.50000000    20.24000000   -28.94900000
   C     47.13000000    20.49000000   -29.55900000
   O     46.73000000    19.88000000   -30.54900000
   C     48.61000000    18.80000000   -28.46900000
   C     49.93000000    18.57000000   -27.72900000
   O     49.86000000    18.19000000   -26.53900000
   O     51.00000000    18.42000000   -28.35900000
   H     48.44000000    20.98000000   -26.92900000
   H     49.27000000    20.42000000   -29.69900000
   H     48.53000000    18.09000000   -29.28900000
   H     47.78000000    18.67000000   -27.77900000
   N     46.34000000    21.38000000   -28.94900000
   C     44.97000000    21.57000000   -29.38900000
   C     44.11000000    20.32000000   -29.28900000
   O     43.22000000    20.09000000   -30.09900000
   H     46.63000000    21.86000000   -28.10900000
   H     44.93000000    22.01000000   -30.37900000
   H     44.40000000    22.31000000   -28.82900000
   N     44.29000000    19.49000000   -28.25900000
   C     43.66000000    18.20000000   -28.03900000
   C     42.63000000    18.05000000   -26.93900000
   O     41.86000000    17.09000000   -26.85900000
   C     44.78000000    17.16000000   -27.94900000
   C     45.11000000    16.80000000   -26.50900000
   N     44.58000000    15.70000000   -25.98900000
   O     45.88000000    17.49000000   -25.84900000
   H     44.81000000    19.89000000   -27.48900000
   H     43.10000000    18.01000000   -28.95900000
   H     45.67000000    17.47000000   -28.48900000
   H     44.35000000    16.23000000   -28.32900000
   H     43.99000000    15.09000000   -26.52900000
   H     44.74000000    15.55000000   -24.99900000
   N     42.58000000    19.06000000   -26.06900000
   C     41.55000000    19.22000000   -25.05900000
   C     41.94000000    18.56000000   -23.74900000
   O     41.10000000    18.63000000   -22.84900000
   H     43.25000000    19.81000000   -26.15900000
   H     40.69000000    18.71000000   -25.47900000
   H     41.33000000    20.29000000   -24.94900000
   N     43.10000000    17.91000000   -23.61900000
   C     43.54000000    17.31000000   -22.37900000
   C     44.98000000    17.64000000   -22.01900000
   O     45.80000000    17.87000000   -22.90900000
   C     43.23000000    15.82000000   -22.43900000
   C     41.91000000    15.43000000   -23.08900000
   O     44.16000000    15.08000000   -23.18900000
   H     43.66000000    17.80000000   -24.45900000
   H     42.87000000    17.67000000   -21.59900000
   H     43.23000000    15.40000000   -21.42900000
   H     44.05000000    14.14000000   -23.04900000
   H     41.11000000    15.98000000   -22.58900000
   H     41.77000000    15.71000000   -24.12900000
   H     41.64000000    14.37000000   -22.96900000
   N     45.29000000    17.55000000   -20.72900000
   C     46.56000000    17.97000000   -20.15900000
   C     47.53000000    16.85000000   -19.79900000
   O     47.19000000    15.95000000   -19.02900000
   C     46.29000000    18.73000000   -18.85900000
   C     44.99000000    19.53000000   -18.86900000
   C     47.45000000    19.64000000   -18.43900000
   C     44.81000000    20.40000000   -17.61900000
   H     44.62000000    17.27000000   -20.01900000
   H     47.03000000    18.71000000   -20.79900000
   H     46.09000000    17.98000000   -18.09900000
   H     44.18000000    18.81000000   -18.88900000
   H     44.98000000    20.14000000   -19.76900000
   H     47.59000000    20.34000000   -19.26900000
   H     47.31000000    20.21000000   -17.52900000
   H     48.33000000    19.02000000   -18.28900000
   H     43.74000000    20.59000000   -17.52900000
   H     45.14000000    19.82000000   -16.75900000
   H     45.34000000    21.35000000   -17.54900000
   N     48.74000000    16.93000000   -20.34900000
   C     49.91000000    16.11000000   -20.07900000
   C     50.77000000    16.62000000   -18.93900000
   O     50.79000000    17.82000000   -18.69900000
   C     50.82000000    16.03000000   -21.29900000
   C     49.95000000    15.71000000   -22.50900000
   O     49.20000000    14.72000000   -22.57900000
   O     50.06000000    16.40000000   -23.54900000
   H     48.92000000    17.69000000   -20.98900000
   H     49.66000000    15.09000000   -19.80900000
   H     51.58000000    15.27000000   -21.12900000
   H     51.36000000    16.96000000   -21.46900000
   N     51.69000000    15.87000000   -18.31900000
   C     52.44000000    16.21000000   -17.12900000
   C     53.17000000    17.55000000   -17.23900000
   O     52.88000000    18.43000000   -16.43900000
   C     53.30000000    15.17000000   -16.41900000
   C     53.99000000    15.68000000   -15.17900000
   C     55.38000000    15.81000000   -15.18900000
   C     53.27000000    15.95000000   -14.00900000
   C     56.05000000    16.13000000   -13.99900000
   C     53.95000000    16.40000000   -12.87900000
   C     55.35000000    16.39000000   -12.80900000
   H     51.73000000    14.90000000   -18.61900000
   H     51.80000000    16.50000000   -16.29900000
   H     53.95000000    14.80000000   -17.21900000
   H     52.62000000    14.38000000   -16.09900000
   H     55.94000000    15.38000000   -16.00900000
   H     52.19000000    15.96000000   -14.04900000
   H     57.12000000    16.11000000   -13.84900000
   H     53.40000000    16.67000000   -11.98900000
   H     55.94000000    16.86000000   -12.03900000
   N     53.99000000    17.79000000   -18.26900000
   C     54.59000000    19.08000000   -18.54900000
   C     53.66000000    20.28000000   -18.63900000
   O     54.00000000    21.35000000   -18.13900000
   C     55.29000000    18.92000000   -19.89900000
   C     55.78000000    17.48000000   -19.75900000
   C     54.50000000    16.83000000   -19.22900000
   H     55.29000000    19.26000000   -17.73900000
   H     54.64000000    19.04000000   -20.75900000
   H     56.13000000    19.60000000   -20.05900000
   H     55.96000000    16.96000000   -20.69900000
   H     56.64000000    17.36000000   -19.09900000
   H     53.77000000    16.75000000   -20.02900000
   H     54.74000000    15.89000000   -18.73900000
   N     52.53000000    20.20000000   -19.34900000
   C     51.50000000    21.21000000   -19.45900000
   C     50.85000000    21.50000000   -18.10900000
   O     50.55000000    22.67000000   -17.88900000
   C     50.38000000    20.77000000   -20.39900000
   C     50.84000000    20.47000000   -21.81900000
   C     49.83000000    19.82000000   -22.75900000
   O     49.87000000    20.04000000   -23.98900000
   O     49.01000000    18.99000000   -22.29900000
   H     52.36000000    19.36000000   -19.88900000
   H     52.02000000    22.09000000   -19.84900000
   H     49.53000000    21.45000000   -20.42900000
   H     49.98000000    19.86000000   -19.95900000
   H     51.74000000    19.86000000   -21.78900000
   H     50.99000000    21.44000000   -22.30900000
   N     50.73000000    20.54000000   -17.18900000
   C     50.26000000    20.81000000   -15.83900000
   H     49.23300000    20.45900000   -15.73500000
   H     50.89500000    20.29000000   -15.12200000
   H     50.29800000    21.88200000   -15.64800000
   H     50.96000000    19.60000000   -17.46900000
  Ca     48.20000000    17.88000000   -24.58900000
   O     48.27000000    15.52000000   -26.31900000
   H     48.04000000    14.76000000   -25.78900000
   H     47.96000000    15.30000000   -27.19900000
   O     47.05000000    15.64000000   -23.74900000
   H     47.76000000    15.13000000   -23.35900000
   H     46.41000000    15.74000000   -23.03900000

Ca 1.00



