%chk=loop1.cluster55.chk
%nprocshared=20
%mem=10GB
%nosave
#b3lyp/svp scf=(tight,noincore,xqc) Test 
#IOP(5/87=12) Density=Current Pop=(MK,readradii) iop(6/33=2) iop(6/42=6)

loop1.cluster55 

   0  1 
   C     71.96000000    47.79000000    19.67000000
   C     73.13000000    47.60000000    18.72000000
   O     73.45000000    46.48000000    18.32000000
   H     71.08300000    47.28100000    19.27100000
   H     72.21100000    47.37100000    20.64500000
   H     71.74600000    48.85400000    19.77500000
   N     73.91000000    48.66000000    18.49000000
   C     74.96000000    48.81000000    17.51000000
   C     76.32000000    48.36000000    18.02000000
   O     77.24000000    49.16000000    18.18000000
   C     74.96000000    50.25000000    17.00000000
   C     75.94000000    50.46000000    15.86000000
   O     76.76000000    51.41000000    15.86000000
   O     75.96000000    49.61000000    14.94000000
   H     73.62000000    49.48000000    19.01000000
   H     74.73000000    48.18000000    16.65000000
   H     75.13000000    50.96000000    17.81000000
   H     73.97000000    50.50000000    16.62000000
   N     76.40000000    47.12000000    18.52000000
   C     77.48000000    46.60000000    19.33000000
   C     78.83000000    46.64000000    18.62000000
   O     79.88000000    46.67000000    19.25000000
   C     77.11000000    45.23000000    19.89000000
   C     75.99000000    45.24000000    20.92000000
   C     75.82000000    43.83000000    21.49000000
   C     74.76000000    43.74000000    22.58000000
   N     73.38000000    43.87000000    22.09000000
   H     75.61000000    46.51000000    18.36000000
   H     77.55000000    47.23000000    20.21000000
   H     77.93000000    44.79000000    20.46000000
   H     76.92000000    44.53000000    19.08000000
   H     75.06000000    45.57000000    20.46000000
   H     76.26000000    45.95000000    21.71000000
   H     76.71000000    43.33000000    21.87000000
   H     75.46000000    43.11000000    20.76000000
   H     74.89000000    44.63000000    23.19000000
   H     74.84000000    42.79000000    23.12000000
   H     72.74000000    43.32000000    22.66000000
   H     73.09000000    44.84000000    22.12000000
   H     73.26000000    43.60000000    21.12000000
   N     78.88000000    46.51000000    17.29000000
   C     80.06000000    46.61000000    16.46000000
   C     80.56000000    48.04000000    16.32000000
   O     81.74000000    48.26000000    16.08000000
   C     79.83000000    45.92000000    15.12000000
   C     78.64000000    46.48000000    14.36000000
   O     78.05000000    45.81000000    13.48000000
   O     78.22000000    47.63000000    14.59000000
   H     77.97000000    46.45000000    16.84000000
   H     80.83000000    45.97000000    16.92000000
   H     79.54000000    44.90000000    15.38000000
   H     80.69000000    45.88000000    14.45000000
   N     79.71000000    49.02000000    16.64000000
   C     80.03000000    50.42000000    16.45000000
   C     80.11000000    50.88000000    15.00000000
   O     80.71000000    51.93000000    14.79000000
   H     78.86000000    48.81000000    17.13000000
   H     81.02000000    50.63000000    16.86000000
   H     79.28000000    50.99000000    17.02000000
   N     79.43000000    50.27000000    14.03000000
   C     79.46000000    50.61000000    12.63000000
   C     78.56000000    51.81000000    12.33000000
   O     78.68000000    52.36000000    11.24000000
   C     79.40000000    49.40000000    11.70000000
   C     78.00000000    48.91000000    11.35000000
   O     77.02000000    49.44000000    11.91000000
   O     77.92000000    47.96000000    10.55000000
   H     78.76000000    49.58000000    14.35000000
   H     80.41000000    51.06000000    12.35000000
   H     79.99000000    48.59000000    12.14000000
   H     79.95000000    49.70000000    10.80000000
   N     77.74000000    52.28000000    13.27000000
   C     76.76000000    53.32000000    13.06000000
   C     75.44000000    52.94000000    12.42000000
   O     74.62000000    53.81000000    12.11000000
   H     77.80000000    51.83000000    14.18000000
   H     77.28000000    54.11000000    12.52000000
   H     76.51000000    53.80000000    14.01000000
   N     75.12000000    51.65000000    12.28000000
   C     73.85000000    51.12000000    11.84000000
   C     73.28000000    49.93000000    12.59000000
   O     73.96000000    48.90000000    12.59000000
   C     73.93000000    50.76000000    10.35000000
   C     73.90000000    51.99000000     9.44000000
   O     75.09000000    50.00000000    10.10000000
   H     75.79000000    50.99000000    12.63000000
   H     73.11000000    51.92000000    11.96000000
   H     73.08000000    50.18000000    10.02000000
   H     75.73000000    50.04000000    10.82000000
   H     73.92000000    51.68000000     8.40000000
   H     72.97000000    52.55000000     9.51000000
   H     74.73000000    52.65000000     9.68000000
   N     72.06000000    49.98000000    13.11000000
   C     71.35000000    48.86000000    13.71000000
   C     70.77000000    47.97000000    12.62000000
   O     69.84000000    48.34000000    11.91000000
   C     70.25000000    49.34000000    14.65000000
   C     70.80000000    50.22000000    15.77000000
   C     69.63000000    48.09000000    15.27000000
   C     69.80000000    50.95000000    16.66000000
   H     71.66000000    50.89000000    12.96000000
   H     72.06000000    48.37000000    14.38000000
   H     69.54000000    49.95000000    14.09000000
   H     71.37000000    51.05000000    15.36000000
   H     71.33000000    49.64000000    16.53000000
   H     69.05000000    47.55000000    14.53000000
   H     70.45000000    47.47000000    15.64000000
   H     69.07000000    48.35000000    16.17000000
   H     69.32000000    51.79000000    16.15000000
   H     69.06000000    50.29000000    17.12000000
   H     70.41000000    51.33000000    17.48000000
   N     71.17000000    46.70000000    12.61000000
   C     70.70000000    45.69000000    11.68000000
   C     69.55000000    44.85000000    12.22000000
   O     69.37000000    44.86000000    13.44000000
   C     71.81000000    44.85000000    11.08000000
   C     72.99000000    45.54000000    10.39000000
   O     72.47000000    44.24000000    12.16000000
   H     71.74000000    46.32000000    13.36000000
   H     70.34000000    46.24000000    10.80000000
   H     71.38000000    44.09000000    10.43000000
   H     73.04000000    44.88000000    12.59000000
   H     72.62000000    45.95000000     9.45000000
   H     73.37000000    46.35000000    11.01000000
   H     73.75000000    44.79000000    10.14000000
   N     68.84000000    44.09000000    11.39000000
   C     67.79000000    43.17000000    11.78000000
   C     68.22000000    42.17000000    12.84000000
   O     67.53000000    41.97000000    13.84000000
   C     67.39000000    42.37000000    10.54000000
   C     66.40000000    43.06000000     9.60000000
   O     68.43000000    41.81000000     9.79000000
   H     68.97000000    44.38000000    10.43000000
   H     66.94000000    43.76000000    12.11000000
   H     66.84000000    41.51000000    10.94000000
   H     68.03000000    41.38000000     9.03000000
   H     66.46000000    42.78000000     8.55000000
   H     65.39000000    42.80000000     9.92000000
   H     66.44000000    44.14000000     9.80000000
   N     69.47000000    41.71000000    12.83000000
   C     70.15000000    40.91000000    13.83000000
   C     70.38000000    41.67000000    15.13000000
   O     70.05000000    41.13000000    16.18000000
   C     71.48000000    40.39000000    13.30000000
   C     72.35000000    39.47000000    14.16000000
   C     73.57000000    39.03000000    13.37000000
   C     74.51000000    38.08000000    14.11000000
   N     75.70000000    37.68000000    13.34000000
   H     69.97000000    41.90000000    11.97000000
   H     69.56000000    40.05000000    14.16000000
   H     72.02000000    41.29000000    12.99000000
   H     71.17000000    39.83000000    12.42000000
   H     71.74000000    38.66000000    14.55000000
   H     72.66000000    40.05000000    15.03000000
   H     74.07000000    39.99000000    13.21000000
   H     73.31000000    38.59000000    12.41000000
   H     73.98000000    37.14000000    14.27000000
   H     74.82000000    38.58000000    15.02000000
   H     75.47000000    37.33000000    12.43000000
   H     76.28000000    38.47000000    13.07000000
   H     76.33000000    37.04000000    13.80000000
   N     71.10000000    42.79000000    15.04000000
   C     71.23000000    43.69000000    16.17000000
   C     69.96000000    44.10000000    16.89000000
   O     69.97000000    44.33000000    18.10000000
   C     72.02000000    44.94000000    15.79000000
   C     73.49000000    44.57000000    15.57000000
   C     74.28000000    45.68000000    14.89000000
   O     73.80000000    46.13000000    13.83000000
   O     75.47000000    45.90000000    15.22000000
   H     71.27000000    43.16000000    14.11000000
   H     71.69000000    43.22000000    17.04000000
   H     71.97000000    45.68000000    16.58000000
   H     71.57000000    45.41000000    14.91000000
   H     73.59000000    43.72000000    14.90000000
   H     73.92000000    44.36000000    16.55000000
   N     68.86000000    44.16000000    16.12000000
   C     67.61000000    44.37000000    16.82000000
   H     66.82100000    43.79600000    16.33400000
   H     67.71300000    44.04200000    17.85400000
   H     67.35400000    45.42900000    16.79800000
   H     68.90000000    43.95000000    15.14000000
  Ca     75.98000000    47.60000000    13.37000000
   O     75.90000000    45.98000000    11.28000000
   H     75.94000000    46.28000000    10.37000000
   H     76.42000000    45.17000000    11.28000000

Ca 1.00



