%chk=loop4.cluster64.chk
%nprocshared=20
%mem=10GB
%nosave
#b3lyp/svp scf=(tight,noincore,xqc) Test 
#IOP(5/87=12) Density=Current Pop=(MK,readradii) iop(6/33=2) iop(6/42=6)

loop4.cluster64 

   -3  1 
   C     63.35000000    59.67000000    82.73000000
   C     64.45000000    58.69000000    83.10000000
   O     65.49000000    58.57000000    82.46000000
   H     62.48700000    59.50700000    83.37600000
   H     63.71300000    60.69000000    82.85900000
   H     63.06000000    59.51600000    81.69100000
   N     64.28000000    57.94000000    84.19000000
   C     65.28000000    57.16000000    84.89000000
   C     66.56000000    57.87000000    85.30000000
   O     67.52000000    57.24000000    85.73000000
   C     65.44000000    55.78000000    84.25000000
   C     64.10000000    55.08000000    84.04000000
   O     64.04000000    54.23000000    83.12000000
   O     63.08000000    55.42000000    84.68000000
   H     63.39000000    58.10000000    84.65000000
   H     64.83000000    57.08000000    85.87000000
   H     66.12000000    55.15000000    84.82000000
   H     65.93000000    56.04000000    83.31000000
   N     66.67000000    59.20000000    85.19000000
   C     67.74000000    60.00000000    85.75000000
   C     67.20000000    60.89000000    86.86000000
   O     66.15000000    61.48000000    86.63000000
   C     68.27000000    60.92000000    84.66000000
   C     68.64000000    60.20000000    83.36000000
   C     69.49000000    61.62000000    85.25000000
   C     69.57000000    59.00000000    83.55000000
   H     65.88000000    59.70000000    84.83000000
   H     68.57000000    59.40000000    86.14000000
   H     67.67000000    61.81000000    84.50000000
   H     69.18000000    60.93000000    82.75000000
   H     67.82000000    59.89000000    82.72000000
   H     69.22000000    62.33000000    86.03000000
   H     70.20000000    60.92000000    85.68000000
   H     70.08000000    62.11000000    84.48000000
   H     69.04000000    58.21000000    84.09000000
   H     69.79000000    58.69000000    82.53000000
   H     70.45000000    59.24000000    84.15000000
   N     67.82000000    60.99000000    88.03000000
   C     68.86000000    60.13000000    88.55000000
   C     68.33000000    58.73000000    88.83000000
   O     69.16000000    57.83000000    88.94000000
   C     69.38000000    60.81000000    89.81000000
   C     70.09000000    62.14000000    89.64000000
   O     71.33000000    62.07000000    89.52000000
   O     69.53000000    63.25000000    89.49000000
   H     67.47000000    61.76000000    88.59000000
   H     69.68000000    59.99000000    87.84000000
   H     70.06000000    60.12000000    90.32000000
   H     68.54000000    61.04000000    90.47000000
   N     67.01000000    58.53000000    88.86000000
   C     66.40000000    57.21000000    88.92000000
   C     66.88000000    56.30000000    90.04000000
   O     66.91000000    56.55000000    91.24000000
   H     66.40000000    59.32000000    88.95000000
   H     66.61000000    56.66000000    88.00000000
   H     65.32000000    57.34000000    88.92000000
   N     67.19000000    55.06000000    89.65000000
   C     67.56000000    53.93000000    90.47000000
   C     68.98000000    53.48000000    90.15000000
   O     69.55000000    52.79000000    90.98000000
   C     66.55000000    52.81000000    90.29000000
   C     66.37000000    52.30000000    88.86000000
   O     67.05000000    51.35000000    88.43000000
   O     65.44000000    52.72000000    88.14000000
   H     67.14000000    54.85000000    88.66000000
   H     67.54000000    54.33000000    91.49000000
   H     65.57000000    53.12000000    90.64000000
   H     66.88000000    52.00000000    90.94000000
   N     69.41000000    53.66000000    88.90000000
   C     70.71000000    53.38000000    88.32000000
   C     70.68000000    52.24000000    87.31000000
   O     71.67000000    51.90000000    86.68000000
   H     68.74000000    54.03000000    88.25000000
   H     71.38000000    53.07000000    89.13000000
   H     71.04000000    54.25000000    87.74000000
   N     69.50000000    51.62000000    87.21000000
   C     69.32000000    50.39000000    86.46000000
   C     69.65000000    50.58000000    84.98000000
   O     70.30000000    49.68000000    84.45000000
   C     70.01000000    49.24000000    87.18000000
   C     69.45000000    47.84000000    86.95000000
   C     69.93000000    46.81000000    87.96000000
   N     69.27000000    46.75000000    89.11000000
   O     70.92000000    46.09000000    87.83000000
   H     68.84000000    51.85000000    87.94000000
   H     68.27000000    50.10000000    86.54000000
   H     69.83000000    49.44000000    88.24000000
   H     71.09000000    49.21000000    86.99000000
   H     69.59000000    47.43000000    85.95000000
   H     68.37000000    47.76000000    87.05000000
   H     68.71000000    47.51000000    89.47000000
   H     69.51000000    46.01000000    89.75000000
   N     69.17000000    51.61000000    84.28000000
   C     69.18000000    51.77000000    82.84000000
   C     68.51000000    50.65000000    82.05000000
   O     67.41000000    50.21000000    82.35000000
   C     68.67000000    53.15000000    82.45000000
   C     69.39000000    54.28000000    83.19000000
   C     68.77000000    53.29000000    80.94000000
   H     68.52000000    52.27000000    84.68000000
   H     70.24000000    51.72000000    82.59000000
   H     67.60000000    53.26000000    82.67000000
   H     69.20000000    54.30000000    84.26000000
   H     70.46000000    54.11000000    83.12000000
   H     69.18000000    55.26000000    82.75000000
   H     68.58000000    54.33000000    80.67000000
   H     69.79000000    53.08000000    80.61000000
   H     68.06000000    52.67000000    80.40000000
   N     69.16000000    50.20000000    80.97000000
   C     68.71000000    49.20000000    80.03000000
   C     68.21000000    49.83000000    78.74000000
   O     68.83000000    50.77000000    78.24000000
   C     69.79000000    48.15000000    79.80000000
   C     69.35000000    47.13000000    78.75000000
   N     68.27000000    46.39000000    78.98000000
   O     69.91000000    47.05000000    77.66000000
   H     70.04000000    50.65000000    80.77000000
   H     67.85000000    48.67000000    80.44000000
   H     69.78000000    47.57000000    80.72000000
   H     70.65000000    48.66000000    79.37000000
   H     67.75000000    46.41000000    79.85000000
   H     67.93000000    45.74000000    78.29000000
   N     67.12000000    49.27000000    78.20000000
   C     66.67000000    49.61000000    76.86000000
   C     65.17000000    49.65000000    76.64000000
   O     64.73000000    49.35000000    75.53000000
   C     67.49000000    48.76000000    75.90000000
   C     67.57000000    49.18000000    74.46000000
   C     67.83000000    50.48000000    74.02000000
   C     67.47000000    48.17000000    73.49000000
   C     68.02000000    50.82000000    72.67000000
   C     67.69000000    48.44000000    72.13000000
   C     68.05000000    49.75000000    71.75000000
   O     68.43000000    49.96000000    70.46000000
   H     66.47000000    48.72000000    78.74000000
   H     66.98000000    50.64000000    76.69000000
   H     67.18000000    47.71000000    75.86000000
   H     68.56000000    48.67000000    76.12000000
   H     67.89000000    51.26000000    74.76000000
   H     67.27000000    47.16000000    73.80000000
   H     68.03000000    51.83000000    72.29000000
   H     67.71000000    47.62000000    71.44000000
   H     68.40000000    49.18000000    69.90000000
   N     64.39000000    50.00000000    77.66000000
   C     62.95000000    49.90000000    77.54000000
   C     62.38000000    50.94000000    76.58000000
   O     61.73000000    50.49000000    75.64000000
   C     62.29000000    50.03000000    78.91000000
   C     60.89000000    49.44000000    79.04000000
   C     60.29000000    49.56000000    80.43000000
   O     60.07000000    48.53000000    81.10000000
   O     59.87000000    50.66000000    80.87000000
   H     64.80000000    50.20000000    78.56000000
   H     62.66000000    48.88000000    77.27000000
   H     62.15000000    51.08000000    79.14000000
   H     62.93000000    49.48000000    79.61000000
   H     60.99000000    48.44000000    78.64000000
   H     60.34000000    49.95000000    78.25000000
   N     62.60000000    52.26000000    76.64000000
   C     63.40000000    53.00000000    77.59000000
   C     64.67000000    53.59000000    77.00000000
   O     65.04000000    53.33000000    75.86000000
   C     62.49000000    54.13000000    78.05000000
   C     61.19000000    53.69000000    78.71000000
   C     60.35000000    54.89000000    79.14000000
   O     60.59000000    55.49000000    80.21000000
   O     59.40000000    55.29000000    78.43000000
   H     62.14000000    52.86000000    75.97000000
   H     63.66000000    52.38000000    78.45000000
   H     62.20000000    54.72000000    77.18000000
   H     62.95000000    54.75000000    78.82000000
   H     61.42000000    53.14000000    79.62000000
   H     60.57000000    53.07000000    78.07000000
   N     65.41000000    54.31000000    77.84000000
   C     66.65000000    55.02000000    77.58000000
   H     67.43400000    54.30300000    77.33700000
   H     66.51000000    55.70300000    76.74200000
   H     66.93800000    55.58600000    78.46600000
   H     64.95000000    54.40000000    78.74000000
  Ca     61.43000000    55.07000000    82.63000000
   O     61.45000000    52.44000000    82.13000000
   H     61.01000000    52.04000000    81.38000000
   H     61.66000000    51.71000000    82.71000000
   O     60.62000000    53.17000000    84.83000000
   H     60.32000000    53.36000000    85.72000000
   H     60.72000000    52.22000000    84.81000000
   O     63.44000000    56.29000000    81.24000000
   H     64.39000000    56.25000000    81.31000000
   H     63.27000000    56.98000000    80.59000000

Ca 1.00



