%chk=loop3.cluster42.chk
%nprocshared=20
%mem=10GB
%nosave
#b3lyp/svp scf=(tight,noincore,xqc) Test 
#IOP(5/87=12) Density=Current Pop=(MK,readradii) iop(6/33=2) iop(6/42=6)

loop3.cluster42 

   0  1 
   C     58.86000000    47.74000000    34.91000000
   C     58.08000000    46.95000000    35.95000000
   O     58.47000000    45.84000000    36.32000000
   H     59.84800000    47.29800000    34.78500000
   H     58.32800000    47.71400000    33.95900000
   H     58.96400000    48.77300000    35.24100000
   N     57.00000000    47.51000000    36.48000000
   C     56.34000000    46.97000000    37.65000000
   C     55.44000000    45.77000000    37.42000000
   O     54.72000000    45.75000000    36.42000000
   C     55.65000000    48.16000000    38.30000000
   C     55.15000000    47.84000000    39.71000000
   O     55.33000000    48.61000000    40.67000000
   O     54.68000000    46.71000000    40.00000000
   H     56.68000000    48.40000000    36.13000000
   H     57.13000000    46.72000000    38.36000000
   H     54.89000000    48.57000000    37.64000000
   H     56.40000000    48.91000000    38.52000000
   N     55.57000000    44.72000000    38.24000000
   C     55.03000000    43.38000000    38.12000000
   C     53.62000000    43.19000000    38.65000000
   O     53.03000000    42.14000000    38.39000000
   C     56.02000000    42.39000000    38.73000000
   C     57.37000000    42.34000000    38.03000000
   C     57.29000000    41.64000000    36.68000000
   C     58.52000000    41.88000000    35.81000000
   N     58.30000000    42.69000000    34.60000000
   H     56.34000000    44.73000000    38.90000000
   H     54.97000000    43.15000000    37.06000000
   H     55.67000000    41.36000000    38.80000000
   H     56.19000000    42.71000000    39.76000000
   H     58.12000000    41.82000000    38.63000000
   H     57.79000000    43.34000000    37.96000000
   H     56.36000000    41.83000000    36.15000000
   H     57.30000000    40.57000000    36.92000000
   H     58.85000000    40.88000000    35.53000000
   H     59.31000000    42.37000000    36.38000000
   H     57.57000000    42.36000000    33.98000000
   H     58.00000000    43.61000000    34.87000000
   H     59.06000000    42.66000000    33.94000000
   N     53.03000000    44.13000000    39.39000000
   C     52.01000000    43.86000000    40.38000000
   C     51.07000000    45.05000000    40.55000000
   O     50.01000000    44.84000000    41.14000000
   C     52.70000000    43.38000000    41.65000000
   C     53.71000000    44.36000000    42.24000000
   O     54.94000000    44.14000000    42.37000000
   O     53.41000000    45.56000000    42.36000000
   H     53.62000000    44.95000000    39.44000000
   H     51.39000000    43.08000000    39.95000000
   H     53.24000000    42.44000000    41.49000000
   H     52.04000000    43.16000000    42.49000000
   N     51.48000000    46.27000000    40.21000000
   C     50.76000000    47.52000000    40.33000000
   C     50.53000000    47.97000000    41.76000000
   O     49.55000000    48.66000000    42.03000000
   H     52.43000000    46.35000000    39.86000000
   H     49.81000000    47.59000000    39.79000000
   H     51.29000000    48.36000000    39.90000000
   N     51.42000000    47.54000000    42.66000000
   C     51.32000000    47.86000000    44.07000000
   C     51.62000000    49.29000000    44.49000000
   O     51.47000000    49.60000000    45.67000000
   C     52.14000000    46.88000000    44.89000000
   C     53.64000000    47.17000000    44.93000000
   N     54.24000000    46.78000000    46.06000000
   O     54.22000000    47.68000000    43.98000000
   H     52.16000000    46.97000000    42.29000000
   H     50.31000000    47.61000000    44.41000000
   H     52.04000000    45.89000000    44.44000000
   H     51.79000000    46.74000000    45.91000000
   H     53.72000000    46.32000000    46.79000000
   H     55.17000000    47.09000000    46.30000000
   N     52.05000000    50.18000000    43.59000000
   C     52.60000000    51.49000000    43.86000000
   C     54.10000000    51.69000000    43.75000000
   O     54.53000000    52.84000000    43.75000000
   H     52.19000000    49.79000000    42.67000000
   H     52.19000000    51.66000000    44.85000000
   H     52.13000000    52.14000000    43.11000000
   N     54.94000000    50.65000000    43.72000000
   C     56.35000000    50.97000000    43.67000000
   C     57.14000000    49.86000000    42.98000000
   O     56.93000000    48.66000000    43.14000000
   C     56.75000000    51.29000000    45.11000000
   C     56.88000000    50.08000000    45.99000000
   C     55.87000000    49.84000000    46.94000000
   C     57.97000000    49.20000000    45.90000000
   C     55.95000000    48.69000000    47.73000000
   C     58.11000000    48.11000000    46.77000000
   C     57.08000000    47.86000000    47.70000000
   O     57.16000000    46.71000000    48.44000000
   H     54.66000000    49.71000000    43.97000000
   H     56.56000000    51.83000000    43.04000000
   H     56.05000000    52.03000000    45.52000000
   H     57.65000000    51.89000000    45.15000000
   H     54.91000000    50.33000000    46.96000000
   H     58.73000000    49.34000000    45.14000000
   H     55.22000000    48.45000000    48.49000000
   H     58.94000000    47.45000000    46.58000000
   H     57.94000000    46.23000000    48.16000000
   N     58.19000000    50.28000000    42.27000000
   C     59.14000000    49.33000000    41.75000000
   C     60.21000000    49.01000000    42.79000000
   O     60.72000000    49.90000000    43.47000000
   C     59.87000000    50.05000000    40.62000000
   C     59.00000000    50.35000000    39.40000000
   C     61.07000000    49.25000000    40.14000000
   C     59.61000000    51.05000000    38.20000000
   H     58.52000000    51.22000000    42.45000000
   H     58.63000000    48.46000000    41.33000000
   H     60.28000000    51.01000000    40.94000000
   H     58.18000000    50.97000000    39.74000000
   H     58.43000000    49.44000000    39.23000000
   H     61.75000000    49.14000000    40.98000000
   H     60.85000000    48.25000000    39.75000000
   H     61.62000000    49.87000000    39.42000000
   H     60.16000000    50.32000000    37.60000000
   H     58.72000000    51.47000000    37.71000000
   H     60.25000000    51.89000000    38.46000000
   N     60.45000000    47.72000000    43.04000000
   C     61.39000000    47.13000000    43.97000000
   C     62.69000000    46.67000000    43.33000000
   O     62.85000000    46.79000000    42.12000000
   C     60.63000000    46.03000000    44.71000000
   O     60.52000000    44.89000000    43.89000000
   H     59.88000000    47.11000000    42.48000000
   H     61.70000000    47.82000000    44.75000000
   H     59.64000000    46.38000000    44.99000000
   H     61.20000000    45.66000000    45.57000000
   H     59.59000000    44.64000000    43.81000000
   N     63.64000000    46.22000000    44.15000000
   C     64.98000000    45.83000000    43.77000000
   C     65.01000000    44.40000000    43.22000000
   O     65.90000000    44.01000000    42.48000000
   C     65.95000000    46.03000000    44.93000000
   H     63.49000000    46.25000000    45.15000000
   H     65.32000000    46.53000000    43.01000000
   H     65.56000000    45.50000000    45.80000000
   H     66.94000000    45.61000000    44.76000000
   H     65.95000000    47.10000000    45.13000000
   N     64.06000000    43.52000000    43.56000000
   C     63.74000000    42.27000000    42.90000000
   C     63.29000000    42.48000000    41.47000000
   O     63.77000000    41.81000000    40.55000000
   C     62.66000000    41.49000000    43.64000000
   H     63.43000000    43.73000000    44.33000000
   H     64.64000000    41.65000000    42.91000000
   H     63.09000000    41.04000000    44.53000000
   H     61.86000000    42.20000000    43.88000000
   H     62.31000000    40.63000000    43.06000000
   N     62.40000000    43.46000000    41.26000000
   C     61.82000000    43.77000000    39.97000000
   C     62.82000000    44.38000000    39.00000000
   O     62.90000000    44.00000000    37.83000000
   C     60.70000000    44.80000000    40.14000000
   C     59.52000000    44.11000000    40.83000000
   C     58.42000000    45.11000000    41.13000000
   O     57.37000000    45.23000000    40.45000000
   O     58.43000000    45.82000000    42.16000000
   H     62.15000000    44.05000000    42.04000000
   H     61.34000000    42.97000000    39.41000000
   H     60.36000000    45.14000000    39.16000000
   H     61.06000000    45.63000000    40.73000000
   H     59.89000000    43.72000000    41.78000000
   H     59.14000000    43.28000000    40.24000000
   N     63.58000000    45.39000000    39.43000000
   C     64.61000000    45.96000000    38.59000000
   H     65.52200000    45.37100000    38.68400000
   H     64.27800000    45.95200000    37.55200000
   H     64.80700000    46.98600000    38.90100000
   H     63.52000000    45.77000000    40.36000000
  Ca     55.89000000    46.53000000    42.27000000
   O     56.74000000    45.60000000    44.69000000
   H     56.39000000    45.23000000    45.50000000
   H     57.29000000    44.91000000    44.33000000

Ca 1.00



