%chk=loop3.cluster174.chk
%nprocshared=20
%mem=10GB
%nosave
#b3lyp/svp scf=(tight,noincore,xqc) Test 
#IOP(5/87=12) Density=Current Pop=(MK,readradii) iop(6/33=2) iop(6/42=6)

loop3.cluster174 

   0  1 
   C     95.15000000    57.48000000    32.28000000
   C     95.96000000    56.21000000    32.44000000
   O     95.76000000    55.42000000    33.35000000
   H     94.21000000    57.38200000    32.82300000
   H     95.71300000    58.32300000    32.68000000
   H     94.94300000    57.64900000    31.22300000
   N     96.95000000    56.03000000    31.55000000
   C     97.70000000    54.80000000    31.38000000
   C     98.94000000    54.75000000    32.26000000
   O     99.60000000    55.77000000    32.40000000
   C     98.12000000    54.77000000    29.92000000
   C     99.07000000    53.64000000    29.56000000
   O     98.62000000    52.50000000    29.31000000
   O    100.30000000    53.81000000    29.41000000
   H     96.88000000    56.65000000    30.76000000
   H     97.06000000    53.96000000    31.66000000
   H     98.52000000    55.75000000    29.64000000
   H     97.25000000    54.53000000    29.30000000
   N     99.25000000    53.55000000    32.77000000
   C    100.29000000    53.38000000    33.77000000
   C    101.71000000    53.58000000    33.27000000
   O    102.65000000    53.30000000    34.01000000
   C    100.03000000    52.21000000    34.70000000
   C    100.18000000    50.95000000    33.85000000
   C     99.80000000    49.69000000    34.62000000
   C     98.33000000    49.67000000    35.04000000
   N     98.01000000    48.58000000    35.97000000
   H     98.56000000    52.82000000    32.66000000
   H    100.20000000    54.20000000    34.48000000
   H     99.00000000    52.22000000    35.05000000
   H    100.68000000    52.18000000    35.58000000
   H    101.21000000    50.90000000    33.48000000
   H     99.47000000    51.10000000    33.04000000
   H    100.49000000    49.66000000    35.46000000
   H    100.13000000    48.81000000    34.08000000
   H     97.71000000    49.63000000    34.14000000
   H     97.99000000    50.55000000    35.59000000
   H     97.07000000    48.80000000    36.25000000
   H     97.99000000    47.66000000    35.55000000
   H     98.60000000    48.62000000    36.79000000
   N    101.89000000    53.95000000    32.00000000
   C    103.15000000    54.18000000    31.33000000
   C    102.98000000    55.35000000    30.36000000
   O    103.93000000    55.70000000    29.66000000
   C    103.74000000    52.94000000    30.66000000
   C    102.77000000    52.14000000    29.80000000
   O    103.00000000    52.09000000    28.58000000
   O    101.86000000    51.42000000    30.26000000
   H    101.08000000    54.11000000    31.41000000
   H    103.88000000    54.47000000    32.09000000
   H    104.08000000    52.25000000    31.43000000
   H    104.66000000    53.28000000    30.19000000
   N    101.82000000    56.01000000    30.40000000
   C    101.49000000    57.11000000    29.51000000
   C    101.75000000    56.90000000    28.03000000
   O    102.23000000    57.82000000    27.37000000
   H    101.21000000    55.78000000    31.17000000
   H    102.10000000    57.95000000    29.84000000
   H    100.47000000    57.42000000    29.74000000
   N    101.64000000    55.68000000    27.51000000
   C    101.66000000    55.40000000    26.08000000
   C    100.53000000    54.46000000    25.71000000
   O    100.24000000    53.56000000    26.50000000
   C    103.09000000    54.93000000    25.85000000
   C    103.42000000    54.50000000    24.43000000
   N    104.41000000    55.15000000    23.83000000
   O    102.82000000    53.57000000    23.90000000
   H    101.57000000    54.90000000    28.15000000
   H    101.52000000    56.33000000    25.53000000
   H    103.27000000    54.04000000    26.45000000
   H    103.80000000    55.69000000    26.19000000
   H    104.96000000    55.87000000    24.30000000
   H    104.81000000    54.70000000    23.02000000
   N    100.04000000    54.50000000    24.46000000
   C     98.88000000    53.87000000    23.88000000
   C     99.03000000    52.40000000    23.52000000
   O     98.03000000    51.78000000    23.16000000
   H    100.47000000    55.14000000    23.81000000
   H     98.61000000    54.36000000    22.94000000
   H     98.09000000    53.97000000    24.63000000
   N    100.23000000    51.82000000    23.54000000
   C    100.53000000    50.44000000    23.24000000
   C    100.06000000    49.56000000    24.39000000
   O    100.24000000    49.83000000    25.57000000
   C    101.98000000    50.31000000    22.80000000
   C    102.28000000    50.55000000    21.34000000
   C    101.68000000    49.74000000    20.37000000
   C    103.13000000    51.64000000    21.06000000
   C    101.84000000    50.13000000    19.03000000
   C    103.29000000    51.97000000    19.71000000
   C    102.58000000    51.28000000    18.71000000
   O    102.79000000    51.60000000    17.40000000
   H    101.05000000    52.37000000    23.77000000
   H     99.76000000    50.17000000    22.51000000
   H    102.40000000    49.38000000    23.17000000
   H    102.53000000    51.03000000    23.42000000
   H    101.09000000    48.87000000    20.63000000
   H    103.69000000    52.14000000    21.83000000
   H    101.28000000    49.57000000    18.30000000
   H    103.84000000    52.86000000    19.43000000
   H    103.33000000    52.38000000    17.26000000
   N     99.54000000    48.39000000    24.01000000
   C     99.28000000    47.27000000    24.90000000
   C    100.49000000    46.72000000    25.65000000
   O    101.48000000    47.39000000    25.96000000
   C     98.09000000    47.59000000    25.79000000
   C     97.97000000    46.82000000    27.11000000
   C     96.80000000    47.40000000    24.99000000
   C     96.76000000    47.02000000    28.01000000
   H     99.52000000    48.18000000    23.02000000
   H     99.03000000    46.45000000    24.24000000
   H     98.15000000    48.62000000    26.15000000
   H     98.80000000    47.06000000    27.78000000
   H     97.99000000    45.76000000    26.89000000
   H     96.03000000    48.02000000    25.45000000
   H     96.83000000    47.58000000    23.91000000
   H     96.35000000    46.42000000    25.08000000
   H     96.90000000    46.49000000    28.95000000
   H     96.54000000    48.07000000    28.24000000
   H     95.88000000    46.61000000    27.53000000
   N    100.52000000    45.41000000    25.89000000
   C    101.55000000    44.69000000    26.60000000
   C    101.55000000    43.21000000    26.26000000
   O    102.61000000    42.60000000    26.37000000
   C    101.54000000    44.80000000    28.12000000
   O    100.29000000    44.58000000    28.72000000
   H     99.71000000    44.85000000    25.64000000
   H    102.57000000    45.00000000    26.35000000
   H    101.93000000    45.77000000    28.43000000
   H    102.21000000    44.08000000    28.59000000
   H    100.22000000    44.82000000    29.65000000
   N    100.45000000    42.61000000    25.78000000
   C    100.25000000    41.18000000    25.88000000
   C    100.60000000    40.61000000    27.24000000
   O    101.55000000    39.83000000    27.38000000
   C    100.93000000    40.39000000    24.76000000
   H     99.65000000    43.18000000    25.54000000
   H     99.19000000    40.99000000    25.76000000
   H    100.71000000    40.93000000    23.84000000
   H    102.01000000    40.30000000    24.88000000
   H    100.50000000    39.40000000    24.63000000
   N     99.92000000    41.02000000    28.31000000
   C     98.64000000    41.69000000    28.46000000
   C     97.50000000    40.77000000    28.04000000
   O     97.75000000    39.57000000    27.98000000
   C     98.51000000    42.14000000    29.91000000
   H    100.39000000    40.87000000    29.19000000
   H     98.66000000    42.60000000    27.86000000
   H     99.53000000    42.42000000    30.18000000
   H     97.93000000    43.06000000    30.00000000
   H     98.04000000    41.42000000    30.58000000
   N     96.30000000    41.25000000    27.72000000
   C     95.75000000    42.58000000    27.89000000
   C     94.98000000    43.02000000    26.65000000
   O     95.44000000    43.96000000    26.00000000
   C     94.89000000    42.68000000    29.15000000
   C     94.25000000    44.03000000    29.44000000
   C     93.27000000    43.92000000    30.60000000
   O     92.09000000    43.58000000    30.35000000
   O     93.61000000    44.13000000    31.79000000
   H     95.61000000    40.57000000    27.44000000
   H     96.56000000    43.29000000    28.04000000
   H     95.54000000    42.36000000    29.97000000
   H     94.04000000    42.00000000    29.05000000
   H     93.78000000    44.43000000    28.54000000
   H     95.08000000    44.71000000    29.60000000
   N     93.96000000    42.25000000    26.27000000
   C     93.07000000    42.42000000    25.13000000
   H     92.18900000    42.98300000    25.43800000
   H     93.58900000    42.96300000    24.34100000
   H     92.76400000    41.44200000    24.75800000
   H     93.66000000    41.51000000    26.89000000
  Ca    100.48600000    51.37000000    27.97000000
   O     98.18000000    51.46000000    26.56000000
   H     97.78000000    51.39000000    25.69000000
   H     97.71000000    52.18000000    26.98000000
   O    102.35600000    49.12000000    27.91000000
   H    102.00600000    48.78000000    27.08000000
   H    103.26600000    49.35000000    27.71000000
   O    102.52600000    51.43000000    26.05000000
   H    103.16600000    51.53000000    25.35000000
   H    102.95600000    51.76000000    26.83000000
   O     99.26000000    49.37000000    29.39000000
   H     98.45000000    48.87000000    29.53000000
   H     99.88000000    48.99000000    30.02000000

Ca 1.00



