%chk=loop3.cluster140.chk
%nprocshared=20
%mem=10GB
%nosave
#b3lyp/svp scf=(tight,noincore,xqc) Test 
#IOP(5/87=12) Density=Current Pop=(MK,readradii) iop(6/33=2) iop(6/42=6)

loop3.cluster140 

   0  1 
   C     57.94000000    54.43000000    21.27000000
   C     57.46000000    55.87000000    21.27000000
   O     56.31000000    56.19000000    20.95000000
   H     58.90000000    54.36700000    21.78300000
   H     57.21200000    53.80400000    21.78500000
   H     58.05500000    54.08500000    20.24300000
   N     58.29000000    56.77000000    21.79000000
   C     57.90000000    58.13000000    22.12000000
   C     57.54000000    59.17000000    21.07000000
   O     58.21000000    60.20000000    21.04000000
   C     56.93000000    58.20000000    23.30000000
   C     57.44000000    57.44000000    24.52000000
   O     57.65000000    58.10000000    25.57000000
   O     57.56000000    56.20000000    24.46000000
   H     59.15000000    56.40000000    22.15000000
   H     58.80000000    58.49000000    22.61000000
   H     55.94000000    57.86000000    22.98000000
   H     56.92000000    59.25000000    23.60000000
   N     56.52000000    58.90000000    20.25000000
   C     56.15000000    59.56000000    19.01000000
   C     55.69000000    61.01000000    19.04000000
   O     55.30000000    61.56000000    18.02000000
   C     55.16000000    58.67000000    18.27000000
   C     53.71000000    58.61000000    18.77000000
   C     53.61000000    58.39000000    20.27000000
   C     52.17000000    58.09000000    20.66000000
   N     52.19000000    57.58000000    22.04000000
   H     56.22000000    57.94000000    20.36000000
   H     57.11000000    59.59000000    18.50000000
   H     55.56000000    57.66000000    18.22000000
   H     55.17000000    58.90000000    17.20000000
   H     53.22000000    57.80000000    18.23000000
   H     53.16000000    59.52000000    18.53000000
   H     53.91000000    59.29000000    20.81000000
   H     54.26000000    57.54000000    20.47000000
   H     51.65000000    57.44000000    19.95000000
   H     51.45000000    58.90000000    20.60000000
   H     52.62000000    56.66000000    22.09000000
   H     52.65000000    58.13000000    22.76000000
   H     51.31000000    57.47000000    22.52000000
   N     55.65000000    61.62000000    20.23000000
   C     55.19000000    62.95000000    20.57000000
   C     55.98000000    63.53000000    21.73000000
   O     56.44000000    62.77000000    22.57000000
   C     53.69000000    62.95000000    20.85000000
   C     53.20000000    64.37000000    21.13000000
   O     52.39000000    64.58000000    22.06000000
   O     53.58000000    65.23000000    20.32000000
   H     56.07000000    61.09000000    20.99000000
   H     55.40000000    63.56000000    19.69000000
   H     53.43000000    62.33000000    21.71000000
   H     53.20000000    62.53000000    19.97000000
   N     56.08000000    64.86000000    21.73000000
   C     56.67000000    65.57000000    22.85000000
   C     55.75000000    65.58000000    24.07000000
   O     54.57000000    65.88000000    23.94000000
   H     55.49000000    65.35000000    21.07000000
   H     56.82000000    66.62000000    22.58000000
   H     57.62000000    65.10000000    23.06000000
   N     56.32000000    65.23000000    25.22000000
   C     55.69000000    65.31000000    26.52000000
   C     56.57000000    65.69000000    27.70000000
   O     56.00000000    66.19000000    28.67000000
   C     55.01000000    63.96000000    26.70000000
   C     53.90000000    63.56000000    25.74000000
   N     52.67000000    64.07000000    25.85000000
   O     54.16000000    62.79000000    24.83000000
   H     57.33000000    65.21000000    25.18000000
   H     54.84000000    66.00000000    26.57000000
   H     54.62000000    63.91000000    27.72000000
   H     55.84000000    63.27000000    26.61000000
   H     52.45000000    64.59000000    26.69000000
   H     52.04000000    63.85000000    25.08000000
   N     57.90000000    65.57000000    27.65000000
   C     58.85000000    65.88000000    28.70000000
   C     58.65000000    65.02000000    29.94000000
   O     58.48000000    63.81000000    29.85000000
   H     58.29000000    65.12000000    26.83000000
   H     58.78000000    66.94000000    28.92000000
   H     59.88000000    65.70000000    28.37000000
   N     58.59000000    65.77000000    31.05000000
   C     58.31000000    65.33000000    32.40000000
   C     56.92000000    64.72000000    32.56000000
   O     56.49000000    64.38000000    33.66000000
   C     59.41000000    64.40000000    32.91000000
   C     60.75000000    65.08000000    32.85000000
   C     60.99000000    66.29000000    33.52000000
   C     61.81000000    64.47000000    32.16000000
   C     62.21000000    66.97000000    33.46000000
   C     63.00000000    65.18000000    31.99000000
   C     63.23000000    66.38000000    32.68000000
   O     64.41000000    67.04000000    32.55000000
   H     58.79000000    66.75000000    30.92000000
   H     58.26000000    66.23000000    33.00000000
   H     59.43000000    63.41000000    32.46000000
   H     59.25000000    64.34000000    33.99000000
   H     60.17000000    66.79000000    34.03000000
   H     61.58000000    63.60000000    31.56000000
   H     62.34000000    67.89000000    34.01000000
   H     63.78000000    64.78000000    31.35000000
   H     65.11000000    66.55000000    32.11000000
   N     56.11000000    64.47000000    31.53000000
   C     54.77000000    63.93000000    31.37000000
   C     53.69000000    64.79000000    32.00000000
   O     52.72000000    65.09000000    31.31000000
   C     54.82000000    62.44000000    31.67000000
   C     55.79000000    61.57000000    30.87000000
   C     53.37000000    61.99000000    31.49000000
   C     55.69000000    61.57000000    29.34000000
   H     56.40000000    64.93000000    30.67000000
   H     54.60000000    63.99000000    30.30000000
   H     55.05000000    62.18000000    32.71000000
   H     55.74000000    60.56000000    31.26000000
   H     56.77000000    61.95000000    31.15000000
   H     52.87000000    62.31000000    30.58000000
   H     53.39000000    60.91000000    31.59000000
   H     52.70000000    62.40000000    32.25000000
   H     54.62000000    61.62000000    29.14000000
   H     56.09000000    62.54000000    29.05000000
   H     56.15000000    60.72000000    28.83000000
   N     53.76000000    65.23000000    33.26000000
   C     52.79000000    66.03000000    33.99000000
   C     51.36000000    65.52000000    33.96000000
   O     50.49000000    66.30000000    33.56000000
   C     53.27000000    66.35000000    35.40000000
   O     54.63000000    66.72000000    35.37000000
   H     54.62000000    65.03000000    33.76000000
   H     52.71000000    67.01000000    33.51000000
   H     53.22000000    65.48000000    36.05000000
   H     52.70000000    67.10000000    35.96000000
   H     54.87000000    66.91000000    36.28000000
   N     51.22000000    64.22000000    34.21000000
   C     49.90000000    63.64000000    34.32000000
   C     48.93000000    63.75000000    33.15000000
   O     47.72000000    63.53000000    33.28000000
   C     49.39000000    64.08000000    35.70000000
   H     52.08000000    63.73000000    34.42000000
   H     50.02000000    62.58000000    34.52000000
   H     49.26000000    65.16000000    35.67000000
   H     48.45000000    63.60000000    35.94000000
   H     50.15000000    63.80000000    36.43000000
   N     49.45000000    63.88000000    31.93000000
   C     48.69000000    64.30000000    30.77000000
   C     48.79000000    63.29000000    29.63000000
   O     49.81000000    62.64000000    29.47000000
   C     49.19000000    65.66000000    30.29000000
   H     50.46000000    63.88000000    31.89000000
   H     47.66000000    64.48000000    31.08000000
   H     48.68000000    66.09000000    29.43000000
   H     48.96000000    66.34000000    31.11000000
   H     50.26000000    65.66000000    30.12000000
   N     47.78000000    63.27000000    28.75000000
   C     47.73000000    62.40000000    27.59000000
   C     48.05000000    60.95000000    27.91000000
   O     48.58000000    60.25000000    27.04000000
   C     48.54000000    62.90000000    26.40000000
   C     48.63000000    64.41000000    26.19000000
   C     49.12000000    64.71000000    24.78000000
   O     48.42000000    64.49000000    23.78000000
   O     50.30000000    65.14000000    24.75000000
   H     47.14000000    64.05000000    28.78000000
   H     46.69000000    62.46000000    27.27000000
   H     48.04000000    62.50000000    25.51000000
   H     49.58000000    62.58000000    26.35000000
   H     49.27000000    64.94000000    26.89000000
   H     47.65000000    64.82000000    26.41000000
   N     47.71000000    60.43000000    29.09000000
   C     47.97000000    59.07000000    29.49000000
   H     48.87100000    59.03800000    30.10300000
   H     47.12500000    58.69200000    30.06600000
   H     48.11200000    58.45100000    28.60400000
   H     47.06000000    61.00000000    29.63000000
  Ca     51.98000000    66.68000000    23.65000000
   O     50.10000000    67.51000000    21.96000000
   H     49.25000000    67.18000000    21.66000000
   H     50.18000000    68.37000000    21.54000000
   O     52.34000000    67.30000000    26.31000000
   H     53.22000000    67.49000000    26.62000000
   H     51.77000000    67.80000000    26.89000000
   O     53.73000000    68.57000000    24.33000000
   H     53.69000000    69.29000000    24.95000000
   H     54.63000000    68.59000000    24.00000000
   O     53.03000000    67.59000000    21.41000000
   H     53.11000000    66.81000000    20.87000000
   H     53.20000000    68.32000000    20.81000000
   O     50.20000000    68.47000000    24.77000000
   H     49.77000000    69.32000000    24.75000000
   H     49.70000000    67.96000000    25.41000000

Ca 1.00



