%chk=loop4.cluster28.chk
%nprocshared=20
%mem=10GB
%nosave
#b3lyp/svp scf=(tight,noincore,xqc) Test 
#IOP(5/87=12) Density=Current Pop=(MK,readradii) iop(6/33=2) iop(6/42=6)

loop4.cluster28 

   -3  1 
   C     44.66000000    46.19000000    60.82000000
   C     45.00000000    45.87000000    62.26000000
   O     46.03000000    45.28000000    62.58000000
   H     43.84200000    46.91000000    60.79200000
   H     45.53400000    46.61400000    60.32500000
   H     44.35800000    45.27700000    60.30600000
   N     44.19000000    46.32000000    63.22000000
   C     44.33000000    46.12000000    64.65000000
   C     45.72000000    46.53000000    65.12000000
   O     46.55000000    45.65000000    65.38000000
   C     43.75000000    44.78000000    65.08000000
   C     44.27000000    43.56000000    64.33000000
   O     43.46000000    42.94000000    63.61000000
   O     45.40000000    43.08000000    64.55000000
   H     43.39000000    46.83000000    62.88000000
   H     43.66000000    46.81000000    65.15000000
   H     42.70000000    44.87000000    64.80000000
   H     43.87000000    44.67000000    66.16000000
   N     45.99000000    47.83000000    64.99000000
   C     47.13000000    48.51000000    65.55000000
   C     47.18000000    48.40000000    67.07000000
   O     47.48000000    47.37000000    67.65000000
   C     48.46000000    48.20000000    64.87000000
   C     49.45000000    49.31000000    65.21000000
   C     48.31000000    48.08000000    63.35000000
   C     50.90000000    48.98000000    64.90000000
   H     45.29000000    48.46000000    64.61000000
   H     46.89000000    49.55000000    65.31000000
   H     48.88000000    47.26000000    65.24000000
   H     49.46000000    49.43000000    66.29000000
   H     49.20000000    50.30000000    64.83000000
   H     49.33000000    48.10000000    62.96000000
   H     47.87000000    47.13000000    63.06000000
   H     47.79000000    48.92000000    62.90000000
   H     51.08000000    49.10000000    63.83000000
   H     51.50000000    49.75000000    65.40000000
   H     51.25000000    48.02000000    65.28000000
   N     46.96000000    49.50000000    67.80000000
   C     47.48000000    49.62000000    69.15000000
   C     46.43000000    49.82000000    70.22000000
   O     45.32000000    50.18000000    69.83000000
   C     48.27000000    50.92000000    69.07000000
   C     47.58000000    52.19000000    68.58000000
   O     47.93000000    53.20000000    69.23000000
   O     46.64000000    52.14000000    67.76000000
   H     46.81000000    50.37000000    67.32000000
   H     48.09000000    48.76000000    69.45000000
   H     49.16000000    50.76000000    68.47000000
   H     48.70000000    51.05000000    70.06000000
   N     46.62000000    49.58000000    71.52000000
   C     47.80000000    48.99000000    72.13000000
   C     47.90000000    47.50000000    71.83000000
   O     46.94000000    46.83000000    72.21000000
   H     45.92000000    49.85000000    72.20000000
   H     47.78000000    49.23000000    73.20000000
   H     48.70000000    49.43000000    71.70000000
   N     48.92000000    46.89000000    71.22000000
   C     50.16000000    47.46000000    70.74000000
   C     50.67000000    46.81000000    69.47000000
   O     50.56000000    45.59000000    69.33000000
   C     51.15000000    47.34000000    71.89000000
   C     52.55000000    47.79000000    71.51000000
   O     53.46000000    47.01000000    71.16000000
   O     52.79000000    49.02000000    71.47000000
   H     48.94000000    45.88000000    71.11000000
   H     49.95000000    48.52000000    70.54000000
   H     51.35000000    46.30000000    72.18000000
   H     50.76000000    48.01000000    72.66000000
   N     51.38000000    47.47000000    68.54000000
   C     51.53000000    48.91000000    68.49000000
   C     52.96000000    49.34000000    68.21000000
   O     53.21000000    50.34000000    67.53000000
   H     51.73000000    46.95000000    67.75000000
   H     51.24000000    49.34000000    69.45000000
   H     50.90000000    49.43000000    67.77000000
   N     53.94000000    48.54000000    68.65000000
   C     55.33000000    48.93000000    68.54000000
   C     56.03000000    48.57000000    67.24000000
   O     57.13000000    49.03000000    66.93000000
   C     56.18000000    48.50000000    69.73000000
   C     56.34000000    47.00000000    69.99000000
   C     56.86000000    46.51000000    71.33000000
   N     56.69000000    45.24000000    71.70000000
   O     57.49000000    47.28000000    72.05000000
   H     53.74000000    47.79000000    69.29000000
   H     55.35000000    50.02000000    68.61000000
   H     55.77000000    48.94000000    70.64000000
   H     57.20000000    48.89000000    69.69000000
   H     56.87000000    46.57000000    69.14000000
   H     55.35000000    46.58000000    69.84000000
   H     56.12000000    44.63000000    71.12000000
   H     57.11000000    44.93000000    72.56000000
   N     55.39000000    47.83000000    66.33000000
   C     55.87000000    47.53000000    64.99000000
   C     56.11000000    46.03000000    64.84000000
   O     55.16000000    45.26000000    64.92000000
   C     54.97000000    48.09000000    63.90000000
   C     55.46000000    47.77000000    62.49000000
   C     54.93000000    49.61000000    64.01000000
   H     54.58000000    47.33000000    66.64000000
   H     56.84000000    47.98000000    64.78000000
   H     53.94000000    47.79000000    64.09000000
   H     55.36000000    46.70000000    62.30000000
   H     54.79000000    48.29000000    61.80000000
   H     56.50000000    48.04000000    62.35000000
   H     54.55000000    50.04000000    63.08000000
   H     54.39000000    49.89000000    64.91000000
   H     55.93000000    50.03000000    64.02000000
   N     57.35000000    45.62000000    64.58000000
   C     57.86000000    44.27000000    64.47000000
   C     57.21000000    43.55000000    63.30000000
   O     57.47000000    43.96000000    62.17000000
   C     57.72000000    43.44000000    65.75000000
   C     58.55000000    43.93000000    66.92000000
   N     57.92000000    44.09000000    68.09000000
   O     59.73000000    44.25000000    66.80000000
   H     58.06000000    46.35000000    64.52000000
   H     58.90000000    44.31000000    64.15000000
   H     58.13000000    42.46000000    65.52000000
   H     56.69000000    43.41000000    66.11000000
   H     57.01000000    43.68000000    68.28000000
   H     58.57000000    44.40000000    68.80000000
   N     56.39000000    42.53000000    63.54000000
   C     55.99000000    41.70000000    62.42000000
   C     54.51000000    41.75000000    62.10000000
   O     53.72000000    41.81000000    63.04000000
   C     56.30000000    40.24000000    62.73000000
   C     57.75000000    39.88000000    62.99000000
   C     58.11000000    39.09000000    64.08000000
   C     58.78000000    40.23000000    62.11000000
   C     59.41000000    38.65000000    64.34000000
   C     60.12000000    39.89000000    62.33000000
   C     60.41000000    39.06000000    63.43000000
   O     61.68000000    38.68000000    63.75000000
   H     56.17000000    42.25000000    64.49000000
   H     56.42000000    41.98000000    61.45000000
   H     55.85000000    39.68000000    61.91000000
   H     55.66000000    39.95000000    63.56000000
   H     57.36000000    38.97000000    64.85000000
   H     58.53000000    40.83000000    61.24000000
   H     59.59000000    38.04000000    65.21000000
   H     60.92000000    40.10000000    61.64000000
   H     62.30000000    39.03000000    63.11000000
   N     54.18000000    41.55000000    60.82000000
   C     52.82000000    41.35000000    60.35000000
   C     51.93000000    42.58000000    60.40000000
   O     50.70000000    42.50000000    60.37000000
   C     52.25000000    40.04000000    60.86000000
   C     52.87000000    38.71000000    60.43000000
   C     51.79000000    37.65000000    60.41000000
   O     51.80000000    36.80000000    61.34000000
   O     51.00000000    37.63000000    59.44000000
   H     54.97000000    41.66000000    60.21000000
   H     53.00000000    41.13000000    59.30000000
   H     51.17000000    39.95000000    60.71000000
   H     52.28000000    40.13000000    61.95000000
   H     53.69000000    38.43000000    61.09000000
   H     53.34000000    38.86000000    59.45000000
   N     52.58000000    43.75000000    60.31000000
   C     51.92000000    45.03000000    60.16000000
   C     52.43000000    45.60000000    58.85000000
   O     51.60000000    45.92000000    58.00000000
   C     52.29000000    45.97000000    61.30000000
   C     52.00000000    45.47000000    62.72000000
   C     50.54000000    45.20000000    63.02000000
   O     50.19000000    44.98000000    64.20000000
   O     49.62000000    45.13000000    62.17000000
   H     53.58000000    43.72000000    60.18000000
   H     50.85000000    44.85000000    60.19000000
   H     51.76000000    46.88000000    61.03000000
   H     53.35000000    46.20000000    61.22000000
   H     52.33000000    46.17000000    63.49000000
   H     52.50000000    44.53000000    62.94000000
   N     53.74000000    45.68000000    58.60000000
   C     54.28000000    46.01000000    57.30000000
   H     55.30000000    45.63400000    57.22500000
   H     53.66600000    45.55200000    56.52400000
   H     54.28200000    47.09200000    57.17100000
   H     54.36000000    45.39000000    59.35000000
  Ca     47.80000000    43.80000000    63.76000000
   O     47.14000000    42.84000000    61.25000000
   H     46.46000000    42.25000000    60.93000000
   H     47.26000000    43.47000000    60.54000000
   O     50.11000000    42.15000000    63.75000000
   H     50.96000000    42.14000000    63.30000000
   H     50.24000000    41.62000000    64.53000000
   O     47.38000000    41.02000000    63.79000000
   H     46.74000000    40.64000000    63.20000000
   H     47.73000000    40.27000000    64.28000000
   O     48.67000000    43.18000000    66.23000000
   H     48.87000000    42.25000000    66.36000000
   H     48.52000000    43.52000000    67.11000000

Ca 1.00



