%chk=loop4.cluster162.chk
%nprocshared=20
%mem=10GB
%nosave
#b3lyp/svp scf=(tight,noincore,xqc) Test 
#IOP(5/87=12) Density=Current Pop=(MK,readradii) iop(6/33=2) iop(6/42=6)

loop4.cluster162 

   -3  1 
   C     65.48000000    79.06000000    69.44000000
   C     64.70000000    78.25000000    70.47000000
   O     63.57000000    77.86000000    70.19000000
   H     66.46800000    78.62000000    69.30500000
   H     64.94600000    79.05100000    68.49000000
   H     65.58500000    80.08700000    69.78800000
   N     65.35000000    77.83000000    71.55000000
   C     64.89000000    77.09000000    72.71000000
   C     64.46000000    75.64000000    72.53000000
   O     64.52000000    74.81000000    73.43000000
   C     63.97000000    77.85000000    73.67000000
   C     62.59000000    78.21000000    73.15000000
   O     61.75000000    77.33000000    72.88000000
   O     62.36000000    79.32000000    72.61000000
   H     66.35000000    77.95000000    71.45000000
   H     65.86000000    77.03000000    73.20000000
   H     64.39000000    78.80000000    74.01000000
   H     63.83000000    77.21000000    74.53000000
   N     64.03000000    75.36000000    71.30000000
   C     63.55000000    74.07000000    70.83000000
   C     62.05000000    73.94000000    71.02000000
   O     61.29000000    74.81000000    70.59000000
   C     63.95000000    74.01000000    69.36000000
   C     63.58000000    72.62000000    68.83000000
   C     65.40000000    74.41000000    69.12000000
   C     63.95000000    72.33000000    67.38000000
   H     64.02000000    76.10000000    70.62000000
   H     64.09000000    73.29000000    71.36000000
   H     63.33000000    74.65000000    68.73000000
   H     62.54000000    72.33000000    68.97000000
   H     64.02000000    71.90000000    69.51000000
   H     65.44000000    75.47000000    69.36000000
   H     66.06000000    73.75000000    69.69000000
   H     65.66000000    74.37000000    68.06000000
   H     65.03000000    72.23000000    67.24000000
   H     63.43000000    71.42000000    67.09000000
   H     63.67000000    73.09000000    66.67000000
   N     61.62000000    72.85000000    71.65000000
   C     60.23000000    72.69000000    72.00000000
   C     59.89000000    73.49000000    73.25000000
   O     60.69000000    73.77000000    74.13000000
   C     60.02000000    71.20000000    72.28000000
   C     60.93000000    70.69000000    73.39000000
   O     62.17000000    70.79000000    73.30000000
   O     60.37000000    70.22000000    74.41000000
   H     62.25000000    72.13000000    71.99000000
   H     59.53000000    73.01000000    71.23000000
   H     60.23000000    70.68000000    71.35000000
   H     58.99000000    71.11000000    72.62000000
   N     58.61000000    73.84000000    73.39000000
   C     57.61000000    73.93000000    72.35000000
   C     57.76000000    75.05000000    71.34000000
   O     58.73000000    75.81000000    71.37000000
   H     58.37000000    74.17000000    74.31000000
   H     56.60000000    74.11000000    72.73000000
   H     57.45000000    73.00000000    71.81000000
   N     56.83000000    75.22000000    70.39000000
   C     55.70000000    74.38000000    70.02000000
   C     55.18000000    74.81000000    68.66000000
   O     54.93000000    75.99000000    68.41000000
   C     54.57000000    74.43000000    71.04000000
   C     54.32000000    75.75000000    71.75000000
   O     55.09000000    76.00000000    72.70000000
   O     53.30000000    76.44000000    71.51000000
   H     57.16000000    75.86000000    69.69000000
   H     56.14000000    73.39000000    69.99000000
   H     54.71000000    73.66000000    71.81000000
   H     53.69000000    74.10000000    70.49000000
   N     55.04000000    73.89000000    67.70000000
   C     55.57000000    72.54000000    67.76000000
   C     55.64000000    71.81000000    66.43000000
   O     56.05000000    70.66000000    66.41000000
   H     54.80000000    74.24000000    66.79000000
   H     54.95000000    71.88000000    68.37000000
   H     56.58000000    72.62000000    68.17000000
   N     55.35000000    72.43000000    65.27000000
   C     55.21000000    71.75000000    64.00000000
   C     56.55000000    71.38000000    63.38000000
   O     56.57000000    70.57000000    62.46000000
   C     54.42000000    72.69000000    63.11000000
   C     54.26000000    72.10000000    61.71000000
   C     53.13000000    72.65000000    60.86000000
   N     51.99000000    71.96000000    60.94000000
   O     53.29000000    73.62000000    60.11000000
   H     54.94000000    73.35000000    65.31000000
   H     54.63000000    70.83000000    64.15000000
   H     54.85000000    73.69000000    63.01000000
   H     53.41000000    72.70000000    63.51000000
   H     54.14000000    71.01000000    61.76000000
   H     55.20000000    72.34000000    61.21000000
   H     51.96000000    71.29000000    61.70000000
   H     51.17000000    72.14000000    60.38000000
   N     57.66000000    71.95000000    63.88000000
   C     59.00000000    71.89000000    63.33000000
   C     59.54000000    73.31000000    63.23000000
   O     59.28000000    74.10000000    64.14000000
   C     59.93000000    71.03000000    64.17000000
   C     59.71000000    69.55000000    63.89000000
   C     59.96000000    71.31000000    65.67000000
   H     57.55000000    72.57000000    64.66000000
   H     59.07000000    71.46000000    62.33000000
   H     60.95000000    71.15000000    63.81000000
   H     58.67000000    69.38000000    64.18000000
   H     59.83000000    69.36000000    62.82000000
   H     60.30000000    68.93000000    64.57000000
   H     58.98000000    71.07000000    66.08000000
   H     60.75000000    70.75000000    66.17000000
   H     60.12000000    72.38000000    65.83000000
   N     60.19000000    73.71000000    62.13000000
   C     60.64000000    75.08000000    62.09000000
   C     59.57000000    76.13000000    61.86000000
   O     59.79000000    77.31000000    62.12000000
   C     61.86000000    75.18000000    61.17000000
   C     62.60000000    76.50000000    60.98000000
   N     62.68000000    76.92000000    59.71000000
   O     63.31000000    76.98000000    61.85000000
   H     60.27000000    73.16000000    61.29000000
   H     61.14000000    75.33000000    63.03000000
   H     61.48000000    74.92000000    60.18000000
   H     62.60000000    74.45000000    61.50000000
   H     61.98000000    76.60000000    59.05000000
   H     63.25000000    77.72000000    59.47000000
   N     58.35000000    75.76000000    61.44000000
   C     57.23000000    76.68000000    61.48000000
   C     56.93000000    77.06000000    62.92000000
   O     56.91000000    76.18000000    63.78000000
   C     56.05000000    76.13000000    60.69000000
   C     54.86000000    77.05000000    60.59000000
   C     54.92000000    78.22000000    59.81000000
   C     53.62000000    76.65000000    61.09000000
   C     53.79000000    78.99000000    59.50000000
   C     52.48000000    77.44000000    60.87000000
   C     52.55000000    78.56000000    60.02000000
   O     51.43000000    79.33000000    59.88000000
   H     58.17000000    74.82000000    61.12000000
   H     57.59000000    77.58000000    60.98000000
   H     55.69000000    75.22000000    61.16000000
   H     56.42000000    76.02000000    59.67000000
   H     55.89000000    78.50000000    59.44000000
   H     53.65000000    75.98000000    61.93000000
   H     53.87000000    79.85000000    58.86000000
   H     51.51000000    77.25000000    61.32000000
   H     51.62000000    80.02000000    59.24000000
   N     56.67000000    78.35000000    63.12000000
   C     56.49000000    78.96000000    64.42000000
   C     57.78000000    79.06000000    65.22000000
   O     57.74000000    79.63000000    66.31000000
   C     55.29000000    78.37000000    65.14000000
   C     54.03000000    78.93000000    64.48000000
   C     52.79000000    78.44000000    65.22000000
   O     52.08000000    79.28000000    65.82000000
   O     52.54000000    77.22000000    65.15000000
   H     56.71000000    79.00000000    62.34000000
   H     56.27000000    79.99000000    64.15000000
   H     55.28000000    78.74000000    66.17000000
   H     55.28000000    77.28000000    65.09000000
   H     53.96000000    78.67000000    63.43000000
   H     54.06000000    80.02000000    64.58000000
   N     58.93000000    78.67000000    64.66000000
   C     60.23000000    79.17000000    65.07000000
   C     60.72000000    80.30000000    64.18000000
   O     61.75000000    80.85000000    64.59000000
   C     61.16000000    77.97000000    64.99000000
   C     60.84000000    76.77000000    65.87000000
   C     60.89000000    77.05000000    67.36000000
   O     60.13000000    76.43000000    68.13000000
   O     61.53000000    77.98000000    67.91000000
   H     58.98000000    78.23000000    63.75000000
   H     60.09000000    79.49000000    66.11000000
   H     62.16000000    78.33000000    65.22000000
   H     61.31000000    77.61000000    63.97000000
   H     61.56000000    75.96000000    65.74000000
   H     59.80000000    76.51000000    65.68000000
   N     60.13000000    80.61000000    63.03000000
   C     60.44000000    81.78000000    62.23000000
   H     61.44900000    81.68800000    61.82800000
   H     59.72800000    81.85800000    61.40800000
   H     60.37700000    82.67300000    62.85200000
   H     59.41000000    79.96000000    62.73000000
  Ca     60.92000000    77.41000000    70.48000000
   O     58.52000000    78.85000000    70.48000000
   H     57.92000000    78.81000000    71.22000000
   H     57.99000000    78.56000000    69.73000000

Ca 1.00



