%chk=loop1.cluster85.chk
%nprocshared=20
%mem=10GB
%nosave
#b3lyp/svp scf=(tight,noincore,xqc) Test 
#IOP(5/87=12) Density=Current Pop=(MK,readradii) iop(6/33=2) iop(6/42=6)

loop1.cluster85 

   0  1 
   C     47.97000000    84.74000000   -14.58600000
   C     46.73000000    84.63000000   -13.71600000
   O     46.06000000    83.60000000   -13.70600000
   H     48.80900000    84.25700000   -14.08500000
   H     47.78800000    84.25000000   -15.54300000
   H     48.20400000    85.79100000   -14.75400000
   N     46.39000000    85.69000000   -12.97600000
   C     45.38000000    85.73000000   -11.94600000
   C     44.17000000    86.53000000   -12.43600000
   O     44.38000000    87.62000000   -12.94600000
   C     45.97000000    86.31000000   -10.66600000
   C     44.95000000    86.53000000    -9.55600000
   O     45.36000000    87.22000000    -8.60600000
   O     43.84000000    85.95000000    -9.59600000
   H     47.12000000    86.38000000   -12.86600000
   H     45.03000000    84.75000000   -11.63600000
   H     46.33000000    87.31000000   -10.92600000
   H     46.82000000    85.71000000   -10.35600000
   N     42.96000000    85.97000000   -12.35600000
   C     41.79000000    86.60000000   -12.92600000
   C     40.89000000    87.31000000   -11.92600000
   O     40.04000000    88.09000000   -12.34600000
   C     41.09000000    85.50000000   -13.71600000
   C     41.52000000    85.39000000   -15.17600000
   C     40.67000000    84.38000000   -15.93600000
   C     40.81000000    84.49000000   -17.45600000
   N     41.99000000    83.88000000   -18.06600000
   H     42.91000000    85.05000000   -11.94600000
   H     42.07000000    87.42000000   -13.59600000
   H     40.03000000    85.77000000   -13.66600000
   H     41.01000000    84.52000000   -13.26600000
   H     42.57000000    85.10000000   -15.23600000
   H     41.35000000    86.34000000   -15.69600000
   H     39.67000000    84.73000000   -15.67600000
   H     40.68000000    83.35000000   -15.58600000
   H     40.89000000    85.56000000   -17.62600000
   H     39.89000000    84.24000000   -17.98600000
   H     42.81000000    84.35000000   -17.70600000
   H     42.09000000    82.92000000   -17.75600000
   H     41.92000000    83.94000000   -19.07600000
   N     41.14000000    87.02000000   -10.64600000
   C     40.15000000    87.43000000    -9.66600000
   C     40.67000000    87.91000000    -8.32600000
   O     39.89000000    88.36000000    -7.48600000
   C     39.18000000    86.26000000    -9.52600000
   C     39.76000000    84.88000000    -9.24600000
   O     39.02000000    83.90000000    -9.49600000
   O     40.96000000    84.73000000    -8.94600000
   H     41.64000000    86.19000000   -10.38600000
   H     39.55000000    88.27000000    -9.99600000
   H     38.66000000    86.28000000   -10.48600000
   H     38.42000000    86.45000000    -8.76600000
   N     41.96000000    87.82000000    -7.96600000
   C     42.54000000    88.20000000    -6.69600000
   C     41.87000000    87.51000000    -5.51600000
   O     41.49000000    88.24000000    -4.60600000
   H     42.61000000    87.38000000    -8.59600000
   H     42.50000000    89.26000000    -6.44600000
   H     43.54000000    87.78000000    -6.56600000
   N     41.83000000    86.18000000    -5.55600000
   C     41.44000000    85.43000000    -4.37600000
   C     42.58000000    85.00000000    -3.46600000
   O     42.36000000    84.80000000    -2.27600000
   C     40.52000000    84.28000000    -4.80600000
   C     41.01000000    83.15000000    -5.69600000
   O     40.32000000    82.11000000    -5.76600000
   O     42.10000000    83.24000000    -6.31600000
   H     41.99000000    85.70000000    -6.42600000
   H     40.73000000    86.09000000    -3.87600000
   H     39.55000000    84.61000000    -5.18600000
   H     40.38000000    83.83000000    -3.82600000
   N     43.84000000    85.03000000    -3.91600000
   C     45.06000000    84.66000000    -3.23600000
   C     45.64000000    83.29000000    -3.56600000
   O     46.55000000    82.81000000    -2.89600000
   H     43.87000000    85.16000000    -4.92600000
   H     44.89000000    84.80000000    -2.16600000
   H     45.77000000    85.41000000    -3.57600000
   N     45.09000000    82.61000000    -4.57600000
   C     45.54000000    81.30000000    -4.99600000
   C     45.49000000    81.17000000    -6.51600000
   O     44.71000000    81.78000000    -7.25600000
   C     44.67000000    80.16000000    -4.47600000
   C     44.78000000    80.10000000    -2.95600000
   O     43.30000000    80.27000000    -4.80600000
   H     44.26000000    83.08000000    -4.91600000
   H     46.57000000    81.13000000    -4.69600000
   H     45.07000000    79.21000000    -4.82600000
   H     43.04000000    80.99000000    -4.22600000
   H     43.87000000    79.56000000    -2.68600000
   H     45.70000000    79.51000000    -2.92600000
   H     44.95000000    81.09000000    -2.51600000
   N     46.35000000    80.32000000    -7.06600000
   C     46.21000000    79.81000000    -8.41600000
   C     45.15000000    78.71000000    -8.44600000
   O     45.12000000    77.74000000    -7.68600000
   C     47.50000000    79.39000000    -9.11600000
   C     48.33000000    80.61000000    -9.50600000
   C     47.38000000    78.25000000   -10.12600000
   C     48.12000000    81.04000000   -10.95600000
   H     46.96000000    79.82000000    -6.43600000
   H     45.86000000    80.68000000    -8.95600000
   H     48.17000000    79.09000000    -8.31600000
   H     49.37000000    80.29000000    -9.42600000
   H     48.26000000    81.41000000    -8.76600000
   H     47.02000000    77.32000000    -9.67600000
   H     46.67000000    78.58000000   -10.88600000
   H     48.36000000    78.13000000   -10.59600000
   H     48.31000000    80.28000000   -11.71600000
   H     47.08000000    81.34000000   -11.11600000
   H     48.72000000    81.94000000   -11.09600000
   N     44.10000000    78.91000000    -9.25600000
   C     43.07000000    77.93000000    -9.54600000
   C     43.30000000    77.19000000   -10.85600000
   O     44.11000000    77.55000000   -11.71600000
   C     41.66000000    78.52000000    -9.54600000
   C     41.11000000    79.08000000   -10.85600000
   O     40.80000000    77.47000000    -9.16600000
   H     44.10000000    79.77000000    -9.77600000
   H     43.08000000    77.19000000    -8.74600000
   H     41.64000000    79.27000000    -8.75600000
   H     40.05000000    77.83000000    -8.68600000
   H     41.30000000    78.34000000   -11.63600000
   H     40.10000000    79.49000000   -10.79600000
   H     41.81000000    79.87000000   -11.11600000
   N     42.63000000    76.05000000   -11.01600000
   C     42.69000000    75.13000000   -12.13600000
   C     42.57000000    75.78000000   -13.50600000
   O     43.32000000    75.44000000   -14.41600000
   C     41.74000000    73.95000000   -11.95600000
   C     42.27000000    72.77000000   -12.76600000
   O     41.74000000    73.67000000   -10.57600000
   H     42.05000000    75.73000000   -10.25600000
   H     43.69000000    74.70000000   -12.08600000
   H     40.72000000    74.21000000   -12.25600000
   H     40.82000000    73.50000000   -10.35600000
   H     42.88000000    73.06000000   -13.62600000
   H     42.77000000    72.13000000   -12.04600000
   H     41.36000000    72.39000000   -13.21600000
   N     41.66000000    76.74000000   -13.68600000
   C     41.53000000    77.55000000   -14.87600000
   C     42.54000000    78.68000000   -15.01600000
   O     42.42000000    79.39000000   -16.00600000
   C     40.13000000    78.16000000   -14.84600000
   C     39.00000000    77.14000000   -15.00600000
   C     37.64000000    77.80000000   -14.87600000
   C     36.49000000    76.79000000   -14.82600000
   N     36.40000000    75.99000000   -16.05600000
   H     40.97000000    76.77000000   -12.94600000
   H     41.67000000    76.89000000   -15.72600000
   H     40.05000000    78.81000000   -15.71600000
   H     40.01000000    78.69000000   -13.90600000
   H     39.04000000    76.33000000   -14.27600000
   H     39.24000000    76.75000000   -15.99600000
   H     37.43000000    78.51000000   -15.67600000
   H     37.60000000    78.42000000   -13.97600000
   H     35.52000000    77.26000000   -14.70600000
   H     36.56000000    76.11000000   -13.97600000
   H     37.23000000    75.41000000   -16.10600000
   H     35.66000000    75.30000000   -16.05600000
   H     36.31000000    76.62000000   -16.83600000
   N     43.54000000    78.78000000   -14.12600000
   C     44.69000000    79.65000000   -14.24600000
   C     45.94000000    78.84000000   -14.53600000
   O     46.79000000    79.28000000   -15.30600000
   C     44.80000000    80.59000000   -13.04600000
   C     43.51000000    81.36000000   -12.81600000
   C     43.62000000    82.15000000   -11.51600000
   O     44.03000000    81.64000000   -10.44600000
   O     43.16000000    83.31000000   -11.40600000
   H     43.48000000    78.19000000   -13.31600000
   H     44.53000000    80.28000000   -15.11600000
   H     45.63000000    81.28000000   -13.19600000
   H     45.06000000    79.97000000   -12.18600000
   H     42.64000000    80.72000000   -12.67600000
   H     43.36000000    82.09000000   -13.61600000
   N     46.15000000    77.67000000   -13.92600000
   C     47.39000000    76.92000000   -13.92600000
   H     48.16100000    77.49400000   -13.41300000
   H     47.24100000    75.97100000   -13.41100000
   H     47.70100000    76.73200000   -14.95300000
   H     45.43000000    77.34000000   -13.29600000
  Ca     43.28000000    83.46000000    -8.67600000
   O     41.00000000    81.99000000    -9.09600000
   H     40.38000000    82.72000000    -9.04600000
   H     40.56000000    81.28000000    -8.63600000
   O     44.79000000    85.03000000    -6.86600000
   H     45.62000000    84.54000000    -6.81600000
   H     45.04000000    85.88000000    -7.23600000
   O     45.84000000    83.41000000    -9.42600000
   H     45.94000000    82.65000000    -9.99600000
   H     46.61000000    83.39000000    -8.86600000

Ca 1.00



