%chk=loop2.cluster101.chk
%nprocshared=20
%mem=10GB
%nosave
#b3lyp/svp scf=(tight,noincore,xqc) Test 
#IOP(5/87=12) Density=Current Pop=(MK,readradii) iop(6/33=2) iop(6/42=6)

loop2.cluster101 

   -2  1 
   C     58.83000000    53.84000000    16.40000000
   C     59.88000000    53.87000000    15.30000000
   O     60.98000000    54.41000000    15.41000000
   H     57.90200000    53.42800000    16.00400000
   H     59.18200000    53.21700000    17.22200000
   H     58.65300000    54.85300000    16.76200000
   N     59.54000000    53.30000000    14.14000000
   C     60.55000000    53.03000000    13.14000000
   C     60.82000000    54.15000000    12.15000000
   O     59.98000000    54.99000000    11.85000000
   C     59.92000000    51.90000000    12.32000000
   C     60.89000000    51.03000000    11.54000000
   O     62.13000000    51.17000000    11.67000000
   O     60.40000000    50.21000000    10.73000000
   H     58.64000000    52.84000000    14.16000000
   H     61.37000000    52.60000000    13.71000000
   H     59.17000000    52.27000000    11.61000000
   H     59.45000000    51.15000000    12.95000000
   N     62.03000000    54.06000000    11.58000000
   C     62.48000000    54.77000000    10.40000000
   C     63.26000000    53.95000000     9.37000000
   O     63.92000000    54.50000000     8.48000000
   C     63.29000000    55.95000000    10.93000000
   H     62.60000000    53.26000000    11.82000000
   H     61.69000000    55.24000000     9.82000000
   H     63.61000000    56.65000000    10.17000000
   H     62.58000000    56.58000000    11.46000000
   H     64.10000000    55.57000000    11.56000000
   N     63.28000000    52.62000000     9.45000000
   C     64.00000000    51.80000000     8.50000000
   C     63.28000000    50.54000000     8.03000000
   O     63.64000000    50.05000000     6.96000000
   C     65.36000000    51.41000000     9.09000000
   C     65.13000000    50.81000000    10.47000000
   O     64.49000000    49.74000000    10.53000000
   O     65.63000000    51.40000000    11.46000000
   H     62.73000000    52.31000000    10.24000000
   H     64.19000000    52.34000000     7.58000000
   H     65.91000000    52.35000000     9.09000000
   H     65.83000000    50.61000000     8.53000000
   N     62.30000000    49.95000000     8.71000000
   C     61.77000000    48.63000000     8.43000000
   C     62.72000000    47.45000000     8.47000000
   O     62.99000000    46.86000000     7.43000000
   H     61.94000000    50.40000000     9.55000000
   H     61.21000000    48.61000000     7.50000000
   H     60.99000000    48.38000000     9.15000000
   N     63.39000000    47.20000000     9.60000000
   C     64.25000000    46.06000000     9.87000000
   C     63.74000000    45.22000000    11.03000000
   O     64.49000000    44.34000000    11.45000000
   C     65.68000000    46.57000000    10.02000000
   C     65.96000000    47.27000000    11.34000000
   N     67.25000000    47.60000000    11.46000000
   O     65.19000000    47.63000000    12.23000000
   H     63.17000000    47.91000000    10.28000000
   H     64.25000000    45.46000000     8.96000000
   H     65.94000000    47.22000000     9.19000000
   H     66.34000000    45.70000000     9.98000000
   H     67.88000000    47.19000000    10.79000000
   H     67.54000000    48.05000000    12.32000000
   N     62.53000000    45.38000000    11.56000000
   C     61.92000000    44.44000000    12.48000000
   C     62.49000000    44.52000000    13.89000000
   O     62.08000000    43.73000000    14.74000000
   H     61.95000000    46.09000000    11.14000000
   H     62.27000000    43.50000000    12.04000000
   H     60.84000000    44.51000000    12.37000000
   N     63.43000000    45.42000000    14.19000000
   C     64.05000000    45.62000000    15.48000000
   C     64.11000000    47.08000000    15.92000000
   O     64.22000000    47.96000000    15.07000000
   C     65.53000000    45.24000000    15.50000000
   C     65.79000000    43.75000000    15.30000000
   O     66.21000000    45.95000000    14.49000000
   H     63.73000000    45.90000000    13.35000000
   H     63.47000000    45.03000000    16.19000000
   H     65.94000000    45.48000000    16.47000000
   H     65.90000000    46.86000000    14.52000000
   H     65.05000000    43.14000000    15.82000000
   H     65.67000000    43.55000000    14.23000000
   H     66.84000000    43.50000000    15.47000000
   N     64.19000000    47.28000000    17.24000000
   C     64.67000000    48.55000000    17.75000000
   C     66.20000000    48.56000000    17.74000000
   O     66.80000000    47.70000000    18.37000000
   C     64.16000000    48.87000000    19.15000000
   C     62.79000000    48.28000000    19.48000000
   C     64.25000000    50.39000000    19.31000000
   C     62.15000000    48.58000000    20.83000000
   H     64.10000000    46.43000000    17.78000000
   H     64.37000000    49.35000000    17.08000000
   H     64.85000000    48.40000000    19.85000000
   H     62.74000000    47.19000000    19.48000000
   H     62.14000000    48.74000000    18.73000000
   H     63.73000000    50.90000000    18.49000000
   H     63.88000000    50.64000000    20.30000000
   H     65.27000000    50.75000000    19.37000000
   H     62.01000000    49.65000000    20.97000000
   H     61.17000000    48.12000000    20.83000000
   H     62.83000000    48.24000000    21.62000000
   N     66.78000000    49.56000000    17.08000000
   C     68.21000000    49.69000000    16.91000000
   C     68.65000000    50.61000000    18.04000000
   O     67.96000000    51.55000000    18.42000000
   C     68.46000000    50.24000000    15.51000000
   C     67.70000000    49.58000000    14.37000000
   O     66.51000000    49.90000000    14.13000000
   O     68.35000000    48.92000000    13.53000000
   H     66.20000000    50.23000000    16.59000000
   H     68.66000000    48.70000000    16.94000000
   H     69.52000000    50.10000000    15.28000000
   H     68.17000000    51.28000000    15.61000000
   N     69.95000000    50.54000000    18.34000000
   C     70.53000000    51.35000000    19.40000000
   C     70.36000000    52.85000000    19.22000000
   O     69.93000000    53.44000000    20.21000000
   C     71.86000000    50.78000000    19.89000000
   C     72.55000000    51.63000000    20.92000000
   C     73.84000000    52.10000000    20.65000000
   C     72.05000000    51.65000000    22.23000000
   C     74.51000000    52.81000000    21.66000000
   C     72.75000000    52.32000000    23.24000000
   C     73.97000000    52.94000000    22.94000000
   H     70.53000000    49.91000000    17.81000000
   H     69.94000000    51.14000000    20.30000000
   H     72.53000000    50.65000000    19.04000000
   H     71.72000000    49.84000000    20.44000000
   H     74.33000000    52.00000000    19.70000000
   H     71.10000000    51.21000000    22.49000000
   H     75.46000000    53.25000000    21.38000000
   H     72.43000000    52.36000000    24.27000000
   H     74.60000000    53.42000000    23.66000000
   N     70.56000000    53.43000000    18.04000000
   C     70.28000000    54.83000000    17.81000000
   C     68.80000000    55.15000000    17.74000000
   O     68.38000000    56.18000000    18.26000000
   C     71.02000000    55.30000000    16.56000000
   C     72.02000000    54.17000000    16.30000000
   C     71.31000000    52.96000000    16.89000000
   H     70.68000000    55.35000000    18.69000000
   H     70.28000000    55.31000000    15.76000000
   H     71.45000000    56.30000000    16.49000000
   H     72.23000000    54.07000000    15.23000000
   H     72.91000000    54.35000000    16.90000000
   H     70.67000000    52.46000000    16.15000000
   H     72.09000000    52.32000000    17.30000000
   N     67.99000000    54.20000000    17.26000000
   C     66.55000000    54.22000000    17.37000000
   C     66.03000000    54.40000000    18.79000000
   O     65.20000000    55.27000000    19.01000000
   C     65.94000000    53.00000000    16.69000000
   C     64.63000000    53.36000000    15.98000000
   C     64.14000000    52.34000000    14.96000000
   O     63.93000000    52.55000000    13.74000000
   O     63.99000000    51.17000000    15.37000000
   H     68.49000000    53.40000000    16.90000000
   H     66.25000000    55.06000000    16.74000000
   H     65.67000000    52.15000000    17.31000000
   H     66.63000000    52.65000000    15.91000000
   H     64.74000000    54.32000000    15.48000000
   H     63.86000000    53.47000000    16.74000000
   N     66.69000000    53.82000000    19.80000000
   C     66.30000000    53.88000000    21.19000000
   H     65.26700000    53.54800000    21.29100000
   H     66.94900000    53.23100000    21.77800000
   H     66.38900000    54.90500000    21.54900000
   H     67.42000000    53.16000000    19.57000000
  Ca     64.07000000    49.95000000    13.10000000
   O     61.84000000    49.81000000    14.60000000
   H     62.36000000    50.27000000    15.26000000
   H     61.01000000    49.61000000    15.05000000
   O     62.03000000    48.32000000    12.10000000
   H     61.61000000    48.96000000    11.53000000
   H     61.34000000    47.70000000    12.33000000

Ca 1.00



