%chk=loop4.cluster146.chk
%nprocshared=20
%mem=10GB
%nosave
#b3lyp/svp scf=(tight,noincore,xqc) Test 
#IOP(5/87=12) Density=Current Pop=(MK,readradii) iop(6/33=2) iop(6/42=6)

loop4.cluster146 

   -3  1 
   C     88.01000000    32.03000000    64.48000000
   C     89.22000000    32.84000000    64.05000000
   O     89.14000000    33.45000000    62.98000000
   H     87.17000000    32.25800000    63.82400000
   H     88.24200000    30.96700000    64.41600000
   H     87.74800000    32.28400000    65.50700000
   N     90.19000000    32.91000000    64.96000000
   C     91.24000000    33.90000000    64.79000000
   C     90.84000000    35.35000000    64.99000000
   O     91.51000000    36.23000000    64.45000000
   C     92.21000000    33.64000000    63.64000000
   C     92.53000000    32.18000000    63.35000000
   O     93.10000000    31.51000000    64.24000000
   O     92.35000000    31.69000000    62.21000000
   H     90.17000000    32.39000000    65.83000000
   H     91.93000000    33.73000000    65.61000000
   H     93.16000000    34.15000000    63.82000000
   H     91.77000000    34.11000000    62.76000000
   N     89.71000000    35.60000000    65.65000000
   C     89.09000000    36.87000000    65.98000000
   C     88.66000000    36.85000000    67.44000000
   O     87.89000000    35.99000000    67.86000000
   C     87.95000000    37.19000000    65.02000000
   C     88.29000000    37.19000000    63.53000000
   C     87.20000000    38.44000000    65.46000000
   C     87.08000000    37.69000000    62.73000000
   H     89.24000000    34.78000000    66.01000000
   H     89.75000000    37.71000000    65.82000000
   H     87.21000000    36.41000000    65.19000000
   H     88.46000000    36.19000000    63.13000000
   H     89.19000000    37.79000000    63.45000000
   H     87.66000000    39.39000000    65.19000000
   H     86.32000000    38.60000000    64.84000000
   H     86.89000000    38.29000000    66.50000000
   H     87.22000000    37.47000000    61.67000000
   H     86.16000000    37.22000000    63.05000000
   H     87.02000000    38.77000000    62.64000000
   N     89.35000000    37.63000000    68.28000000
   C     90.58000000    38.35000000    68.02000000
   C     91.78000000    37.44000000    67.82000000
   O     92.62000000    37.69000000    66.95000000
   C     90.79000000    39.29000000    69.21000000
   C     89.78000000    40.43000000    69.31000000
   O     90.05000000    41.52000000    68.76000000
   O     88.70000000    40.28000000    69.91000000
   H     88.94000000    37.66000000    69.20000000
   H     90.51000000    38.95000000    67.12000000
   H     91.75000000    39.78000000    69.10000000
   H     90.79000000    38.75000000    70.16000000
   N     91.81000000    36.29000000    68.49000000
   C     92.81000000    35.27000000    68.28000000
   C     94.15000000    35.56000000    68.93000000
   O     94.29000000    36.22000000    69.96000000
   H     91.17000000    36.22000000    69.27000000
   H     92.94000000    35.13000000    67.20000000
   H     92.52000000    34.27000000    68.61000000
   N     95.22000000    35.11000000    68.27000000
   C     96.58000000    35.38000000    68.69000000
   C     97.41000000    36.13000000    67.65000000
   O     98.62000000    36.28000000    67.78000000
   C     97.28000000    34.09000000    69.09000000
   C     97.25000000    33.07000000    67.96000000
   O     97.08000000    33.47000000    66.78000000
   O     97.55000000    31.89000000    68.21000000
   H     95.09000000    34.41000000    67.55000000
   H     96.58000000    36.13000000    69.48000000
   H     96.69000000    33.64000000    69.89000000
   H     98.26000000    34.37000000    69.48000000
   N     96.82000000    36.47000000    66.51000000
   C     97.50000000    37.16000000    65.44000000
   C     97.97000000    36.19000000    64.36000000
   O     98.31000000    36.70000000    63.30000000
   H     95.84000000    36.23000000    66.56000000
   H     98.40000000    37.69000000    65.76000000
   H     96.91000000    37.92000000    64.92000000
   N     98.06000000    34.87000000    64.52000000
   C     98.80000000    33.97000000    63.66000000
   C     98.24000000    33.82000000    62.25000000
   O     99.01000000    33.72000000    61.29000000
   C    100.31000000    34.17000000    63.73000000
   C    100.83000000    34.22000000    65.16000000
   C    102.35000000    34.21000000    65.31000000
   N    102.91000000    34.53000000    66.48000000
   O    103.06000000    33.70000000    64.45000000
   H     97.75000000    34.48000000    65.40000000
   H     98.65000000    32.94000000    63.98000000
   H    100.80000000    34.97000000    63.17000000
   H    100.73000000    33.26000000    63.29000000
   H    100.32000000    33.43000000    65.70000000
   H    100.46000000    35.15000000    65.59000000
   H    102.35000000    34.68000000    67.31000000
   H    103.90000000    34.36000000    66.61000000
   N     96.92000000    33.77000000    62.03000000
   C     96.20000000    33.65000000    60.78000000
   C     96.27000000    32.23000000    60.22000000
   O     96.12000000    31.23000000    60.92000000
   C     94.74000000    34.07000000    60.92000000
   C     94.70000000    35.47000000    61.51000000
   C     93.85000000    34.05000000    59.68000000
   H     96.37000000    33.75000000    62.88000000
   H     96.57000000    34.30000000    59.99000000
   H     94.43000000    33.35000000    61.68000000
   H     94.98000000    36.23000000    60.78000000
   H     93.67000000    35.63000000    61.84000000
   H     95.36000000    35.59000000    62.37000000
   H     92.85000000    34.16000000    60.11000000
   H     94.28000000    34.79000000    59.00000000
   H     93.90000000    33.10000000    59.16000000
   N     96.73000000    32.08000000    58.97000000
   C     96.74000000    30.85000000    58.20000000
   C     95.43000000    30.15000000    57.88000000
   O     94.41000000    30.82000000    57.94000000
   C     97.63000000    31.07000000    56.97000000
   C     97.93000000    29.79000000    56.20000000
   N     97.92000000    29.82000000    54.87000000
   O     98.06000000    28.78000000    56.89000000
   H     96.72000000    32.90000000    58.39000000
   H     97.34000000    30.18000000    58.81000000
   H     98.59000000    31.34000000    57.40000000
   H     97.27000000    31.83000000    56.28000000
   H     97.43000000    30.53000000    54.34000000
   H     98.01000000    28.90000000    54.47000000
   N     95.43000000    28.87000000    57.49000000
   C     94.27000000    28.15000000    56.99000000
   C     94.03000000    26.89000000    57.81000000
   O     94.44000000    25.80000000    57.44000000
   C     94.58000000    27.85000000    55.52000000
   C     93.28000000    27.50000000    54.83000000
   C     92.45000000    28.53000000    54.38000000
   C     92.92000000    26.17000000    54.59000000
   C     91.37000000    28.27000000    53.53000000
   C     91.77000000    25.95000000    53.84000000
   C     91.04000000    26.95000000    53.16000000
   O     89.97000000    26.65000000    52.36000000
   H     96.30000000    28.37000000    57.45000000
   H     93.44000000    28.85000000    56.95000000
   H     95.30000000    27.04000000    55.53000000
   H     95.08000000    28.68000000    55.02000000
   H     92.72000000    29.56000000    54.54000000
   H     93.39000000    25.35000000    55.13000000
   H     90.85000000    29.06000000    53.00000000
   H     91.46000000    24.94000000    53.63000000
   H     89.93000000    25.70000000    52.23000000
   N     93.49000000    27.11000000    59.01000000
   C     93.48000000    26.08000000    60.03000000
   C     92.23000000    25.22000000    60.03000000
   O     92.15000000    24.00000000    59.93000000
   C     93.95000000    26.65000000    61.37000000
   C     93.86000000    25.69000000    62.55000000
   C     94.55000000    26.01000000    63.87000000
   O     94.26000000    27.03000000    64.53000000
   O     95.35000000    25.15000000    64.32000000
   H     93.18000000    28.05000000    59.20000000
   H     94.23000000    25.34000000    59.75000000
   H     93.35000000    27.50000000    61.68000000
   H     94.98000000    27.01000000    61.29000000
   H     94.24000000    24.71000000    62.25000000
   H     92.81000000    25.49000000    62.79000000
   N     91.01000000    25.77000000    60.07000000
   C     90.62000000    27.14000000    60.36000000
   C     90.10000000    27.95000000    59.18000000
   O     89.89000000    27.29000000    58.17000000
   C     89.53000000    27.19000000    61.42000000
   C     88.11000000    26.67000000    61.18000000
   C     87.94000000    25.16000000    61.15000000
   O     88.22000000    24.56000000    60.09000000
   O     87.58000000    24.47000000    62.13000000
   H     90.27000000    25.08000000    60.10000000
   H     91.44000000    27.73000000    60.76000000
   H     89.48000000    28.22000000    61.77000000
   H     89.89000000    26.64000000    62.29000000
   H     87.72000000    27.08000000    60.25000000
   H     87.42000000    26.98000000    61.96000000
   N     89.98000000    29.28000000    59.12000000
   C     89.71000000    30.23000000    58.06000000
   H     88.89000000    30.88300000    58.35900000
   H     90.60100000    30.82900000    57.87200000
   H     89.43400000    29.69400000    57.15200000
   H     90.24000000    29.79000000    59.95000000
  Ca     93.98000000    29.37000000    65.21000000
   O     96.74000000    28.42000000    65.02000000
   H     97.03000000    27.55000000    65.29000000
   H     96.98000000    28.47000000    64.09000000
   O     94.96000000    29.85000000    62.75000000
   H     95.54000000    30.59000000    62.60000000
   H     94.39000000    29.83000000    61.98000000
   O     93.09000000    30.74000000    67.37000000
   H     92.26000000    30.99000000    67.76000000
   H     93.75000000    31.22000000    67.86000000
   O     96.36000000    30.94000000    65.45000000
   H     96.79000000    30.08000000    65.45000000
   H     96.85000000    31.46000000    66.08000000
   O     92.05000000    29.16000000    63.28000000
   H     91.21000000    29.52000000    63.57000000
   H     92.29000000    29.71000000    62.53000000
   O     95.42000000    28.61000000    67.42000000
   H     95.43000000    27.66000000    67.33000000
   H     95.56000000    28.77000000    68.35000000

Ca 1.00



