%chk=loop2.cluster124.chk
%nprocshared=20
%mem=10GB
%nosave
#b3lyp/svp scf=(tight,noincore,xqc) Test 
#IOP(5/87=12) Density=Current Pop=(MK,readradii) iop(6/33=2) iop(6/42=6)

loop2.cluster124 

   -2  1 
   C     19.91000000     5.31000000    65.34000000
   C     20.41000000     5.57000000    66.75000000
   O     20.59000000     6.71000000    67.17000000
   H     19.03500000     5.93000000    65.14500000
   H     20.69500000     5.55500000    64.62500000
   H     19.64000000     4.25900000    65.23800000
   N     20.63000000     4.47000000    67.48000000
   C     21.38000000     4.46000000    68.72000000
   C     20.65000000     5.03000000    69.94000000
   O     21.38000000     5.35000000    70.88000000
   C     21.79000000     3.00000000    68.89000000
   C     22.81000000     2.89000000    70.02000000
   O     23.96000000     3.36000000    69.90000000
   O     22.46000000     2.25000000    71.03000000
   H     20.30000000     3.60000000    67.11000000
   H     22.26000000     5.06000000    68.52000000
   H     22.28000000     2.67000000    67.97000000
   H     20.93000000     2.35000000    69.03000000
   N     19.32000000     5.09000000    69.90000000
   C     18.36000000     5.58000000    70.87000000
   C     16.96000000     5.08000000    70.57000000
   O     16.64000000     4.74000000    69.44000000
   C     18.38000000     7.09000000    71.06000000
   H     18.86000000     4.85000000    69.04000000
   H     18.75000000     5.12000000    71.78000000
   H     17.98000000     7.57000000    70.16000000
   H     17.83000000     7.28000000    71.98000000
   H     19.43000000     7.38000000    70.96000000
   N     16.08000000     4.84000000    71.55000000
   C     16.12000000     4.98000000    72.99000000
   C     15.57000000     3.71000000    73.61000000
   O     14.56000000     3.17000000    73.17000000
   C     15.21000000     6.12000000    73.46000000
   C     15.24000000     6.24000000    74.98000000
   O     16.32000000     6.23000000    75.60000000
   O     14.20000000     6.60000000    75.56000000
   H     15.27000000     4.37000000    71.16000000
   H     17.14000000     5.18000000    73.32000000
   H     14.26000000     5.93000000    72.97000000
   H     15.53000000     7.06000000    73.01000000
   N     16.37000000     3.13000000    74.51000000
   C     16.13000000     1.84000000    75.15000000
   C     16.99000000     0.77000000    74.49000000
   O     18.18000000     0.97000000    74.28000000
   H     17.20000000     3.66000000    74.71000000
   H     15.08000000     1.58000000    75.21000000
   H     16.53000000     1.90000000    76.16000000
   N     16.41000000    -0.42000000    74.28000000
   C     15.08000000    -0.85000000    74.69000000
   C     14.01000000    -0.34000000    73.74000000
   O     14.10000000    -0.57000000    72.53000000
   C     15.06000000    -2.37000000    74.71000000
   C     13.75000000    -2.92000000    75.26000000
   N     13.70000000    -3.17000000    76.57000000
   O     12.66000000    -2.95000000    74.70000000
   H     17.08000000    -1.15000000    74.10000000
   H     14.71000000    -0.49000000    75.64000000
   H     15.86000000    -2.69000000    75.38000000
   H     15.18000000    -2.81000000    73.72000000
   H     14.54000000    -3.28000000    77.12000000
   H     12.79000000    -3.47000000    76.90000000
   N     12.94000000     0.26000000    74.26000000
   C     11.81000000     0.72000000    73.47000000
   C     11.16000000     1.99000000    74.00000000
   O     10.04000000     2.24000000    73.57000000
   H     13.02000000     0.55000000    75.22000000
   H     11.06000000    -0.07000000    73.36000000
   H     12.18000000     1.06000000    72.50000000
   N     11.74000000     2.84000000    74.85000000
   C     11.24000000     4.12000000    75.29000000
   C     11.39000000     5.23000000    74.26000000
   O     11.70000000     6.37000000    74.61000000
   C     11.74000000     4.47000000    76.69000000
   C     11.15000000     3.57000000    77.77000000
   O     13.14000000     4.37000000    76.79000000
   H     12.62000000     2.44000000    75.16000000
   H     10.17000000     3.93000000    75.35000000
   H     11.37000000     5.48000000    76.87000000
   H     13.51000000     5.17000000    76.42000000
   H     10.11000000     3.89000000    77.89000000
   H     11.39000000     2.53000000    77.53000000
   H     11.51000000     3.83000000    78.76000000
   N     11.13000000     5.03000000    72.96000000
   C     11.23000000     5.94000000    71.84000000
   C      9.95000000     6.76000000    71.87000000
   O      8.86000000     6.19000000    71.93000000
   C     11.48000000     5.13000000    70.57000000
   C     12.94000000     4.77000000    70.33000000
   C     10.66000000     3.85000000    70.37000000
   C     13.25000000     3.99000000    69.06000000
   H     10.82000000     4.10000000    72.76000000
   H     12.01000000     6.70000000    71.93000000
   H     11.22000000     5.88000000    69.82000000
   H     13.37000000     4.14000000    71.12000000
   H     13.56000000     5.66000000    70.31000000
   H      9.63000000     4.20000000    70.53000000
   H     10.74000000     3.70000000    69.29000000
   H     10.96000000     2.97000000    70.92000000
   H     12.98000000     4.65000000    68.23000000
   H     14.33000000     3.82000000    69.12000000
   H     12.81000000     2.99000000    69.08000000
   N      9.89000000     8.09000000    71.83000000
   C      8.71000000     8.94000000    71.81000000
   C      8.83000000    10.11000000    70.84000000
   O      9.70000000    10.96000000    70.99000000
   C      8.34000000     9.22000000    73.26000000
   C      9.52000000     9.74000000    74.07000000
   O     10.28000000     8.95000000    74.67000000
   O      9.69000000    10.97000000    74.24000000
   H     10.78000000     8.52000000    72.03000000
   H      7.86000000     8.30000000    71.57000000
   H      8.01000000     8.29000000    73.73000000
   H      7.57000000     9.98000000    73.32000000
   N      7.89000000    10.33000000    69.92000000
   C      7.78000000    11.55000000    69.15000000
   C      8.65000000    11.48000000    67.91000000
   O      8.46000000    10.54000000    67.14000000
   C      6.28000000    11.70000000    68.88000000
   C      5.99000000    12.73000000    67.81000000
   C      5.86000000    12.44000000    66.45000000
   C      5.87000000    14.06000000    68.24000000
   C      5.55000000    13.41000000    65.49000000
   C      5.53000000    15.02000000    67.27000000
   C      5.41000000    14.73000000    65.90000000
   H      7.05000000     9.76000000    69.84000000
   H      8.11000000    12.42000000    69.73000000
   H      5.84000000    11.93000000    69.85000000
   H      5.80000000    10.78000000    68.57000000
   H      5.97000000    11.41000000    66.14000000
   H      5.96000000    14.21000000    69.30000000
   H      5.43000000    13.13000000    64.45000000
   H      5.39000000    16.01000000    67.67000000
   H      5.43000000    15.60000000    65.26000000
   N      9.53000000    12.45000000    67.66000000
   C     10.47000000    12.33000000    66.56000000
   C     11.47000000    11.20000000    66.76000000
   O     11.97000000    10.65000000    65.78000000
   C     11.21000000    13.66000000    66.54000000
   C     10.21000000    14.62000000    67.17000000
   C      9.56000000    13.76000000    68.26000000
   H      9.90000000    12.15000000    65.65000000
   H     12.15000000    13.61000000    67.10000000
   H     11.45000000    14.03000000    65.54000000
   H     10.63000000    15.54000000    67.57000000
   H      9.52000000    14.84000000    66.36000000
   H     10.13000000    13.78000000    69.19000000
   H      8.61000000    14.26000000    68.46000000
   N     11.83000000    10.97000000    68.02000000
   C     12.62000000     9.87000000    68.53000000
   C     12.19000000     8.49000000    68.07000000
   O     13.02000000     7.58000000    68.01000000
   C     12.58000000     9.85000000    70.05000000
   C     13.72000000     9.09000000    70.73000000
   C     13.72000000     9.44000000    72.20000000
   O     14.63000000    10.20000000    72.60000000
   O     12.80000000     8.99000000    72.92000000
   H     11.41000000    11.52000000    68.76000000
   H     13.67000000     9.93000000    68.22000000
   H     11.60000000     9.45000000    70.29000000
   H     12.65000000    10.92000000    70.25000000
   H     14.66000000     9.29000000    70.22000000
   H     13.54000000     8.03000000    70.54000000
   N     10.95000000     8.25000000    67.65000000
   C     10.49000000     7.02000000    67.02000000
   H      9.56800000     7.21600000    66.47200000
   H     11.25200000     6.65800000    66.33000000
   H     10.30400000     6.26600000    67.78500000
   H     10.25000000     8.97000000    67.70000000
  Ca     12.67000000     8.63000000    75.40000000
   O     11.02000000     8.01000000    77.38000000
   H     10.15000000     7.65000000    77.26000000
   H     11.37000000     7.55000000    78.15000000
   O     11.83000000    11.27000000    75.59000000
   H     11.40000000    11.37000000    76.44000000
   H     11.11000000    11.24000000    74.96000000
   O     13.51000000     9.27000000    77.91000000
   H     14.45000000     9.06000000    77.93000000
   H     13.25000000     9.27000000    78.83000000
   O     15.07000000     9.77000000    75.34000000
   H     15.89000000     9.35000000    75.61000000
   H     15.28000000    10.18000000    74.50000000

Ca 1.00



