%chk=loop3.cluster40.chk
%nprocshared=20
%mem=10GB
%nosave
#b3lyp/svp scf=(tight,noincore,xqc) Test 
#IOP(5/87=12) Density=Current Pop=(MK,readradii) iop(6/33=2) iop(6/42=6)

loop3.cluster40 

   0  1 
   C     61.33000000    46.05000000    35.09000000
   C     60.61000000    45.21000000    36.14000000
   O     61.28000000    44.40000000    36.79000000
   H     62.32600000    45.64200000    34.92000000
   H     60.76600000    46.02900000    34.15800000
   H     61.41400000    47.07800000    35.44200000
   N     59.31000000    45.40000000    36.38000000
   C     58.59000000    44.78000000    37.47000000
   C     58.30000000    43.32000000    37.14000000
   O     57.20000000    43.00000000    36.69000000
   C     57.35000000    45.61000000    37.76000000
   C     56.72000000    45.16000000    39.07000000
   O     55.58000000    45.63000000    39.31000000
   O     57.28000000    44.42000000    39.89000000
   H     58.80000000    46.13000000    35.90000000
   H     59.30000000    44.74000000    38.30000000
   H     56.63000000    45.57000000    36.94000000
   H     57.56000000    46.67000000    37.95000000
   N     59.08000000    42.29000000    37.45000000
   C     59.17000000    40.97000000    36.86000000
   C     58.17000000    40.04000000    37.54000000
   O     57.78000000    39.05000000    36.94000000
   C     60.59000000    40.46000000    37.10000000
   C     61.80000000    40.96000000    36.33000000
   C     61.56000000    40.89000000    34.82000000
   C     62.74000000    41.55000000    34.11000000
   N     62.50000000    41.71000000    32.67000000
   H     59.97000000    42.66000000    37.75000000
   H     58.86000000    41.06000000    35.82000000
   H     60.63000000    39.38000000    36.91000000
   H     60.77000000    40.51000000    38.17000000
   H     62.68000000    40.37000000    36.57000000
   H     61.95000000    41.99000000    36.66000000
   H     60.64000000    41.45000000    34.64000000
   H     61.60000000    39.84000000    34.55000000
   H     63.60000000    40.88000000    34.22000000
   H     63.07000000    42.47000000    34.58000000
   H     61.99000000    42.59000000    32.71000000
   H     63.32000000    41.74000000    32.07000000
   H     61.94000000    40.92000000    32.41000000
   N     57.76000000    40.39000000    38.77000000
   C     56.71000000    39.71000000    39.50000000
   C     55.36000000    40.41000000    39.43000000
   O     54.27000000    39.92000000    39.72000000
   C     57.15000000    39.50000000    40.94000000
   C     57.72000000    40.66000000    41.76000000
   O     58.68000000    40.50000000    42.54000000
   O     57.29000000    41.81000000    41.52000000
   H     58.24000000    41.19000000    39.16000000
   H     56.61000000    38.72000000    39.05000000
   H     57.83000000    38.65000000    40.92000000
   H     56.28000000    39.13000000    41.49000000
   N     55.32000000    41.70000000    39.09000000
   C     54.30000000    42.65000000    38.72000000
   C     53.53000000    43.20000000    39.92000000
   O     52.35000000    43.50000000    39.75000000
   H     56.24000000    42.05000000    38.86000000
   H     53.55000000    42.13000000    38.13000000
   H     54.70000000    43.49000000    38.15000000
   N     54.15000000    43.24000000    41.10000000
   C     53.54000000    43.63000000    42.35000000
   C     53.54000000    45.14000000    42.57000000
   O     53.04000000    45.65000000    43.57000000
   C     53.93000000    42.81000000    43.57000000
   C     55.37000000    42.97000000    44.04000000
   N     55.78000000    42.09000000    44.96000000
   O     56.09000000    43.85000000    43.58000000
   H     55.07000000    42.83000000    41.12000000
   H     52.48000000    43.37000000    42.29000000
   H     53.91000000    41.75000000    43.31000000
   H     53.24000000    43.00000000    44.40000000
   H     55.17000000    41.43000000    45.42000000
   H     56.73000000    42.23000000    45.29000000
   N     54.13000000    45.86000000    41.62000000
   C     54.02000000    47.30000000    41.63000000
   C     55.20000000    48.16000000    42.05000000
   O     55.07000000    49.37000000    42.26000000
   H     54.47000000    45.41000000    40.78000000
   H     53.22000000    47.60000000    42.30000000
   H     53.81000000    47.62000000    40.61000000
   N     56.41000000    47.61000000    42.20000000
   C     57.66000000    48.31000000    42.40000000
   C     58.81000000    47.59000000    41.71000000
   O     58.75000000    46.39000000    41.45000000
   C     57.96000000    48.48000000    43.89000000
   C     58.12000000    47.16000000    44.60000000
   C     57.02000000    46.63000000    45.30000000
   C     59.18000000    46.26000000    44.43000000
   C     57.05000000    45.36000000    45.89000000
   C     59.31000000    45.02000000    45.07000000
   C     58.20000000    44.56000000    45.80000000
   O     58.10000000    43.29000000    46.29000000
   H     56.46000000    46.60000000    42.16000000
   H     57.54000000    49.31000000    41.97000000
   H     57.12000000    49.03000000    44.34000000
   H     58.92000000    48.98000000    44.01000000
   H     56.14000000    47.23000000    45.47000000
   H     60.08000000    46.68000000    44.00000000
   H     56.20000000    44.96000000    46.42000000
   H     60.22000000    44.44000000    45.04000000
   H     58.94000000    42.86000000    46.47000000
   N     59.86000000    48.32000000    41.33000000
   C     61.11000000    47.78000000    40.86000000
   C     62.08000000    47.63000000    42.02000000
   O     62.09000000    48.54000000    42.85000000
   C     61.71000000    48.57000000    39.70000000
   C     60.72000000    49.10000000    38.65000000
   C     62.92000000    47.82000000    39.15000000
   C     61.24000000    50.09000000    37.61000000
   H     59.89000000    49.32000000    41.52000000
   H     60.96000000    46.79000000    40.42000000
   H     62.08000000    49.53000000    40.06000000
   H     59.84000000    49.51000000    39.14000000
   H     60.31000000    48.24000000    38.12000000
   H     62.52000000    46.91000000    38.71000000
   H     63.36000000    48.29000000    38.27000000
   H     63.70000000    47.54000000    39.86000000
   H     60.52000000    50.19000000    36.80000000
   H     61.42000000    51.09000000    38.01000000
   H     62.22000000    49.79000000    37.26000000
   N     62.74000000    46.49000000    42.20000000
   C     63.81000000    46.23000000    43.16000000
   C     65.18000000    46.28000000    42.50000000
   O     65.34000000    46.57000000    41.31000000
   C     63.66000000    44.90000000    43.89000000
   O     63.97000000    43.80000000    43.08000000
   H     62.49000000    45.70000000    41.63000000
   H     63.82000000    47.03000000    43.90000000
   H     62.62000000    44.79000000    44.21000000
   H     64.28000000    44.97000000    44.78000000
   H     63.60000000    42.99000000    43.45000000
   N     66.23000000    46.13000000    43.30000000
   C     67.59000000    46.13000000    42.79000000
   C     67.81000000    44.82000000    42.04000000
   O     68.28000000    44.94000000    40.91000000
   C     68.52000000    46.10000000    43.99000000
   H     66.06000000    45.88000000    44.26000000
   H     67.88000000    46.99000000    42.19000000
   H     68.28000000    46.92000000    44.67000000
   H     68.51000000    45.14000000    44.50000000
   H     69.50000000    46.33000000    43.57000000
   N     67.42000000    43.66000000    42.56000000
   C     67.32000000    42.45000000    41.76000000
   C     66.45000000    42.63000000    40.53000000
   O     66.67000000    41.81000000    39.63000000
   C     66.81000000    41.28000000    42.59000000
   H     66.98000000    43.72000000    43.47000000
   H     68.27000000    42.09000000    41.38000000
   H     66.83000000    40.35000000    42.02000000
   H     67.45000000    41.22000000    43.47000000
   H     65.77000000    41.47000000    42.88000000
   N     65.46000000    43.51000000    40.35000000
   C     64.74000000    43.68000000    39.10000000
   C     65.56000000    44.52000000    38.14000000
   O     65.75000000    44.19000000    36.97000000
   C     63.31000000    44.11000000    39.39000000
   C     62.49000000    42.97000000    39.98000000
   C     61.09000000    43.45000000    40.37000000
   O     60.20000000    42.63000000    40.07000000
   O     60.88000000    44.42000000    41.13000000
   H     65.36000000    44.19000000    41.10000000
   H     64.63000000    42.70000000    38.64000000
   H     62.90000000    44.27000000    38.39000000
   H     63.24000000    44.98000000    40.05000000
   H     62.91000000    42.66000000    40.93000000
   H     62.43000000    42.07000000    39.36000000
   N     65.97000000    45.68000000    38.65000000
   C     66.85000000    46.51000000    37.85000000
   H     67.80700000    46.00400000    37.72000000
   H     66.39700000    46.68600000    36.87400000
   H     67.00900000    47.46300000    38.35400000
   H     65.70000000    46.02000000    39.57000000
  Ca     58.60000000    43.81000000    41.95000000
   O     59.99000000    42.45000000    43.75000000
   H     60.88000000    42.16000000    43.95000000
   H     59.51000000    41.65000000    43.55000000

Ca 1.00



