%chk=loop3.cluster125.chk
%nprocshared=20
%mem=10GB
%nosave
#b3lyp/svp scf=(tight,noincore,xqc) Test 
#IOP(5/87=12) Density=Current Pop=(MK,readradii) iop(6/33=2) iop(6/42=6)

loop3.cluster125 

   0  1 
   C     83.29000000    76.35000000    25.80000000
   C     84.80000000    76.26000000    25.90000000
   O     85.31000000    75.44000000    26.65000000
   H     82.88900000    76.75800000    26.72800000
   H     83.01800000    77.00200000    24.97000000
   H     82.87700000    75.35600000    25.63200000
   N     85.50000000    77.12000000    25.15000000
   C     86.95000000    77.20000000    25.14000000
   C     87.42000000    77.78000000    26.47000000
   O     87.96000000    77.01000000    27.26000000
   C     87.41000000    77.90000000    23.87000000
   C     86.78000000    79.26000000    23.61000000
   O     85.64000000    79.32000000    23.12000000
   O     87.26000000    80.33000000    24.05000000
   H     84.95000000    77.76000000    24.60000000
   H     87.35000000    76.18000000    25.09000000
   H     87.10000000    77.29000000    23.02000000
   H     88.48000000    78.05000000    24.00000000
   N     87.32000000    79.08000000    26.76000000
   C     87.74000000    79.85000000    27.91000000
   C     89.23000000    79.78000000    28.20000000
   O     89.98000000    80.68000000    27.82000000
   C     87.27000000    81.28000000    27.70000000
   C     87.22000000    82.01000000    29.04000000
   C     86.40000000    83.29000000    28.91000000
   C     86.15000000    83.88000000    30.30000000
   N     85.77000000    85.30000000    30.36000000
   H     86.97000000    79.69000000    26.04000000
   H     87.22000000    79.32000000    28.71000000
   H     86.25000000    81.24000000    27.31000000
   H     87.78000000    81.87000000    26.94000000
   H     88.20000000    82.31000000    29.42000000
   H     86.62000000    81.47000000    29.77000000
   H     85.40000000    83.09000000    28.53000000
   H     86.92000000    84.02000000    28.30000000
   H     87.10000000    83.69000000    30.80000000
   H     85.35000000    83.29000000    30.73000000
   H     86.00000000    85.64000000    31.29000000
   H     86.37000000    85.86000000    29.78000000
   H     84.81000000    85.44000000    30.09000000
   N     89.76000000    78.72000000    28.81000000
   C     91.15000000    78.33000000    28.88000000
   C     91.64000000    77.74000000    27.56000000
   O     92.83000000    77.89000000    27.29000000
   C     91.47000000    77.30000000    29.96000000
   C     90.47000000    76.18000000    30.19000000
   O     90.87000000    75.19000000    30.85000000
   O     89.30000000    76.21000000    29.74000000
   H     89.08000000    78.08000000    29.21000000
   H     91.80000000    79.20000000    29.01000000
   H     91.59000000    77.82000000    30.91000000
   H     92.40000000    76.81000000    29.66000000
   N     90.71000000    77.09000000    26.84000000
   C     90.89000000    76.32000000    25.63000000
   C     91.07000000    77.11000000    24.34000000
   O     91.01000000    78.33000000    24.41000000
   H     89.78000000    77.05000000    27.24000000
   H     90.05000000    75.63000000    25.68000000
   H     91.80000000    75.72000000    25.72000000
   N     91.28000000    76.54000000    23.15000000
   C     91.23000000    75.13000000    22.83000000
   C     89.82000000    74.63000000    23.09000000
   O     88.81000000    75.33000000    22.99000000
   C     91.60000000    75.01000000    21.36000000
   C     91.77000000    73.59000000    20.83000000
   N     90.95000000    73.05000000    19.92000000
   O     92.80000000    73.00000000    21.14000000
   H     91.50000000    77.14000000    22.37000000
   H     92.00000000    74.65000000    23.44000000
   H     92.56000000    75.48000000    21.16000000
   H     90.89000000    75.51000000    20.71000000
   H     90.13000000    73.57000000    19.66000000
   H     91.22000000    72.11000000    19.66000000
   N     89.59000000    73.38000000    23.50000000
   C     90.56000000    72.31000000    23.50000000
   C     90.46000000    71.44000000    24.75000000
   O     89.78000000    71.71000000    25.73000000
   H     88.61000000    73.15000000    23.61000000
   H     91.57000000    72.70000000    23.55000000
   H     90.43000000    71.72000000    22.59000000
   N     91.06000000    70.25000000    24.64000000
   C     91.01000000    69.28000000    25.71000000
   C     92.07000000    69.47000000    26.79000000
   O     93.19000000    69.66000000    26.33000000
   C     91.05000000    67.84000000    25.21000000
   C     90.01000000    67.43000000    24.19000000
   C     88.72000000    67.23000000    24.69000000
   C     90.30000000    67.09000000    22.86000000
   C     87.69000000    66.64000000    23.94000000
   C     89.29000000    66.55000000    22.07000000
   C     87.99000000    66.41000000    22.58000000
   O     86.90000000    66.02000000    21.85000000
   H     91.67000000    70.12000000    23.84000000
   H     90.04000000    69.36000000    26.20000000
   H     90.97000000    67.18000000    26.07000000
   H     91.96000000    67.76000000    24.63000000
   H     88.62000000    67.44000000    25.75000000
   H     91.32000000    67.12000000    22.51000000
   H     86.72000000    66.55000000    24.39000000
   H     89.42000000    66.25000000    21.04000000
   H     87.15000000    65.80000000    20.95000000
   N     91.83000000    69.30000000    28.09000000
   C     92.84000000    69.32000000    29.13000000
   C     93.00000000    68.00000000    29.87000000
   O     94.06000000    67.73000000    30.43000000
   C     92.55000000    70.53000000    30.02000000
   C     91.40000000    70.30000000    31.00000000
   C     93.82000000    71.09000000    30.65000000
   C     90.97000000    71.54000000    31.77000000
   H     90.86000000    69.44000000    28.34000000
   H     93.83000000    69.57000000    28.75000000
   H     92.31000000    71.30000000    29.29000000
   H     91.68000000    69.55000000    31.75000000
   H     90.54000000    69.85000000    30.51000000
   H     94.62000000    71.12000000    29.90000000
   H     93.55000000    72.06000000    31.07000000
   H     94.04000000    70.49000000    31.53000000
   H     90.03000000    71.34000000    32.30000000
   H     91.68000000    71.61000000    32.60000000
   H     90.79000000    72.33000000    31.05000000
   N     91.95000000    67.18000000    29.80000000
   C     92.02000000    65.77000000    30.12000000
   C     91.20000000    65.35000000    31.33000000
   O     91.27000000    64.19000000    31.74000000
   C     91.79000000    64.85000000    28.92000000
   O     92.46000000    65.34000000    27.78000000
   H     91.27000000    67.50000000    29.12000000
   H     93.05000000    65.56000000    30.39000000
   H     90.72000000    64.85000000    28.75000000
   H     92.11000000    63.85000000    29.24000000
   H     93.40000000    65.34000000    27.98000000
   N     90.46000000    66.28000000    31.93000000
   C     89.65000000    66.08000000    33.11000000
   C     88.40000000    66.95000000    33.11000000
   O     88.55000000    68.15000000    32.87000000
   C     90.53000000    66.36000000    34.33000000
   H     90.42000000    67.23000000    31.57000000
   H     89.29000000    65.05000000    33.12000000
   H     90.79000000    67.41000000    34.29000000
   H     90.05000000    66.15000000    35.28000000
   H     91.41000000    65.72000000    34.45000000
   N     87.21000000    66.42000000    33.38000000
   C     86.02000000    67.16000000    33.76000000
   C     85.46000000    68.30000000    32.91000000
   O     84.59000000    69.02000000    33.41000000
   C     86.19000000    67.58000000    35.22000000
   H     87.16000000    65.42000000    33.46000000
   H     85.17000000    66.48000000    33.74000000
   H     85.22000000    67.70000000    35.69000000
   H     86.69000000    66.75000000    35.72000000
   H     86.68000000    68.54000000    35.37000000
   N     85.90000000    68.60000000    31.69000000
   C     85.36000000    69.62000000    30.81000000
   C     84.20000000    69.11000000    29.97000000
   O     83.31000000    69.84000000    29.54000000
   C     86.49000000    70.00000000    29.86000000
   C     87.67000000    70.66000000    30.56000000
   C     87.32000000    72.04000000    31.10000000
   O     87.57000000    73.01000000    30.34000000
   O     86.62000000    72.15000000    32.12000000
   H     86.68000000    68.03000000    31.40000000
   H     84.96000000    70.49000000    31.34000000
   H     86.18000000    70.69000000    29.08000000
   H     86.74000000    69.04000000    29.41000000
   H     88.38000000    70.82000000    29.75000000
   H     88.16000000    69.96000000    31.23000000
   N     84.09000000    67.79000000    29.78000000
   C     82.88000000    67.12000000    29.33000000
   H     82.10100000    67.86100000    29.15000000
   H     83.08600000    66.57800000    28.40700000
   H     82.54500000    66.42000000    30.09600000
   H     84.83000000    67.19000000    30.11000000
  Ca     87.17000000    75.10000000    28.91000000
   O     84.70000000    74.00000000    29.57000000
   H     84.38000000    73.63000000    30.39000000
   H     84.45000000    73.36000000    28.91000000
   O     86.89000000    76.16000000    31.34000000
   H     86.58000000    75.78000000    32.16000000
   H     86.84000000    77.11000000    31.47000000
   O     86.57000000    72.77000000    27.13000000
   H     85.74000000    73.17000000    26.87000000
   H     86.49000000    71.86000000    26.87000000
   O     85.23000000    77.13000000    28.85000000
   H     84.32000000    76.89000000    28.98000000
   H     85.20000000    77.88000000    28.26000000
   O     89.30000000    73.96000000    27.54000000
   H     89.30000000    73.17000000    26.99000000
   H     90.07000000    73.87000000    28.10000000

Ca 1.00



