%chk=loop2.cluster211.chk
%nprocshared=20
%mem=10GB
%nosave
#b3lyp/svp scf=(tight,noincore,xqc) Test 
#IOP(5/87=12) Density=Current Pop=(MK,readradii) iop(6/33=2) iop(6/42=6)

loop2.cluster211 

   -2  1 
   C     53.37000000    13.09000000    23.14000000
   C     52.76000000    12.00000000    22.28000000
   O     52.28000000    11.02000000    22.84000000
   H     54.28700000    13.45000000    22.67300000
   H     52.66400000    13.91500000    23.23700000
   H     53.59900000    12.68900000    24.12700000
   N     52.87000000    12.12000000    20.96000000
   C     52.45000000    11.14000000    19.97000000
   C     52.92000000     9.71000000    20.17000000
   O     52.14000000     8.82000000    19.85000000
   C     53.16000000    11.60000000    18.70000000
   C     52.68000000    10.93000000    17.42000000
   O     53.08000000     9.79000000    17.09000000
   O     51.98000000    11.56000000    16.59000000
   H     53.24000000    12.98000000    20.59000000
   H     51.36000000    11.23000000    19.94000000
   H     54.22000000    11.37000000    18.77000000
   H     53.04000000    12.68000000    18.57000000
   N     54.10000000     9.52000000    20.76000000
   C     54.58000000     8.29000000    21.35000000
   C     53.53000000     7.46000000    22.07000000
   O     53.53000000     6.25000000    21.88000000
   C     55.38000000     7.53000000    20.30000000
   H     54.64000000    10.36000000    20.92000000
   H     55.27000000     8.63000000    22.13000000
   H     56.27000000     8.10000000    20.04000000
   H     55.72000000     6.57000000    20.70000000
   H     54.79000000     7.36000000    19.40000000
   N     52.69000000     8.08000000    22.90000000
   C     51.69000000     7.46000000    23.76000000
   C     50.59000000     6.79000000    22.95000000
   O     49.83000000     5.99000000    23.50000000
   C     52.38000000     6.47000000    24.68000000
   C     53.55000000     6.98000000    25.52000000
   O     54.45000000     6.18000000    25.84000000
   O     53.75000000     8.21000000    25.61000000
   H     52.68000000     9.09000000    22.92000000
   H     51.12000000     8.22000000    24.29000000
   H     52.64000000     5.58000000    24.11000000
   H     51.70000000     6.19000000    25.49000000
   N     50.48000000     7.04000000    21.65000000
   C     49.58000000     6.38000000    20.72000000
   C     48.09000000     6.27000000    21.01000000
   O     47.49000000     7.02000000    21.78000000
   H     51.17000000     7.69000000    21.30000000
   H     49.91000000     5.34000000    20.63000000
   H     49.71000000     6.94000000    19.80000000
   N     47.38000000     5.35000000    20.35000000
   C     45.98000000     5.01000000    20.50000000
   C     44.90000000     6.06000000    20.33000000
   O     43.70000000     5.82000000    20.50000000
   C     45.80000000     4.35000000    21.87000000
   C     46.50000000     3.01000000    22.06000000
   N     46.07000000     2.07000000    21.22000000
   O     47.42000000     2.83000000    22.85000000
   H     47.91000000     4.80000000    19.69000000
   H     45.60000000     4.27000000    19.79000000
   H     44.77000000     4.12000000    22.12000000
   H     46.18000000     5.03000000    22.63000000
   H     45.19000000     2.26000000    20.76000000
   H     46.42000000     1.12000000    21.21000000
   N     45.38000000     7.25000000    19.98000000
   C     44.62000000     8.47000000    19.83000000
   C     45.30000000     9.73000000    20.36000000
   O     45.11000000    10.84000000    19.87000000
   H     46.39000000     7.33000000    19.90000000
   H     43.70000000     8.37000000    20.41000000
   H     44.51000000     8.62000000    18.76000000
   N     46.14000000     9.60000000    21.39000000
   C     47.00000000    10.61000000    21.96000000
   C     46.96000000    10.72000000    23.48000000
   O     47.13000000     9.78000000    24.25000000
   C     48.47000000    10.38000000    21.59000000
   C     48.56000000     9.86000000    20.16000000
   O     49.22000000    11.56000000    21.77000000
   H     46.36000000     8.72000000    21.84000000
   H     46.67000000    11.57000000    21.56000000
   H     48.88000000     9.68000000    22.32000000
   H     49.89000000    11.37000000    22.43000000
   H     48.14000000     8.86000000    20.10000000
   H     48.05000000    10.56000000    19.50000000
   H     49.59000000     9.76000000    19.81000000
   N     46.86000000    11.96000000    23.96000000
   C     46.95000000    12.41000000    25.34000000
   C     48.21000000    12.04000000    26.10000000
   O     49.14000000    11.65000000    25.39000000
   C     46.78000000    13.93000000    25.35000000
   C     46.28000000    14.53000000    26.67000000
   C     48.06000000    14.62000000    24.91000000
   C     45.71000000    15.94000000    26.54000000
   H     46.88000000    12.61000000    23.19000000
   H     46.15000000    11.92000000    25.89000000
   H     46.06000000    14.23000000    24.60000000
   H     47.11000000    14.46000000    27.36000000
   H     45.47000000    13.91000000    27.07000000
   H     48.39000000    14.18000000    23.97000000
   H     47.84000000    15.67000000    24.71000000
   H     48.81000000    14.53000000    25.70000000
   H     46.58000000    16.59000000    26.48000000
   H     44.94000000    15.97000000    25.76000000
   H     45.11000000    16.20000000    27.41000000
   N     48.30000000    12.13000000    27.43000000
   C     49.46000000    11.65000000    28.15000000
   C     49.14000000    10.67000000    29.28000000
   O     49.24000000    11.04000000    30.44000000
   C     50.34000000    12.83000000    28.54000000
   C     51.62000000    12.35000000    29.22000000
   O     52.25000000    11.33000000    28.85000000
   O     52.01000000    13.23000000    30.00000000
   H     47.58000000    12.58000000    27.97000000
   H     50.10000000    11.07000000    27.48000000
   H     49.69000000    13.40000000    29.20000000
   H     50.57000000    13.43000000    27.66000000
   N     48.72000000     9.45000000    28.93000000
   C     48.55000000     8.23000000    29.69000000
   C     47.74000000     8.27000000    30.98000000
   O     48.14000000     7.55000000    31.88000000
   C     48.19000000     7.05000000    28.79000000
   C     46.76000000     6.87000000    28.34000000
   C     45.86000000     6.09000000    29.08000000
   C     46.24000000     7.72000000    27.35000000
   C     44.48000000     6.08000000    28.83000000
   C     44.86000000     7.71000000    27.13000000
   C     43.94000000     6.93000000    27.85000000
   H     48.66000000     9.33000000    27.93000000
   H     49.58000000     8.08000000    30.01000000
   H     48.41000000     6.12000000    29.30000000
   H     48.89000000     6.94000000    27.97000000
   H     46.15000000     5.49000000    29.93000000
   H     46.80000000     8.46000000    26.80000000
   H     43.81000000     5.55000000    29.49000000
   H     44.49000000     8.48000000    26.48000000
   H     42.88000000     7.05000000    27.70000000
   N     46.66000000     9.06000000    31.06000000
   C     45.90000000     9.86000000    30.13000000
   C     46.09000000    11.37000000    30.17000000
   O     45.81000000    12.03000000    29.16000000
   C     44.42000000     9.62000000    30.44000000
   C     44.42000000     9.30000000    31.94000000
   C     45.88000000     8.98000000    32.27000000
   H     46.03000000     9.58000000    29.09000000
   H     43.76000000    10.46000000    30.25000000
   H     43.94000000     8.74000000    30.01000000
   H     44.08000000    10.19000000    32.47000000
   H     43.79000000     8.43000000    32.10000000
   H     46.29000000     9.60000000    33.07000000
   H     45.84000000     8.01000000    32.76000000
   N     46.60000000    11.97000000    31.25000000
   C     46.49000000    13.39000000    31.53000000
   C     47.79000000    14.19000000    31.50000000
   O     48.79000000    13.66000000    31.98000000
   C     45.68000000    13.61000000    32.80000000
   C     44.21000000    13.36000000    32.45000000
   C     43.41000000    13.39000000    33.74000000
   O     42.98000000    12.30000000    34.18000000
   O     43.20000000    14.45000000    34.37000000
   H     47.01000000    11.35000000    31.93000000
   H     45.98000000    13.80000000    30.66000000
   H     45.94000000    14.62000000    33.11000000
   H     46.09000000    12.96000000    33.57000000
   H     44.05000000    12.39000000    31.98000000
   H     43.88000000    14.10000000    31.71000000
   N     47.75000000    15.42000000    30.99000000
   C     48.82000000    16.36000000    30.70000000
   H     49.70000000    15.81400000    30.36100000
   H     48.49800000    17.04900000    29.91900000
   H     49.06600000    16.92100000    31.60200000
   H     46.82000000    15.76000000    30.77000000
  Ca     54.02000000    10.05000000    27.46000000
   O     55.25000000    10.38000000    24.73000000
   H     54.93000000     9.48000000    24.65000000
   H     55.97000000    10.44000000    24.10000000
   O     51.81000000     8.67000000    27.75000000
   H     51.05000000     8.68000000    27.17000000
   H     51.64000000     7.96000000    28.36000000
   O     52.00000000    10.71000000    25.60000000
   H     51.09000000    10.98000000    25.57000000
   H     52.31000000    10.79000000    24.70000000
   O     56.62000000     9.93000000    27.13000000
   H     57.01000000    10.61000000    26.58000000
   H     57.33000000     9.68000000    27.73000000
   O     53.22000000     9.59000000    30.60000000
   H     52.80000000     8.79000000    30.29000000
   H     52.63000000    10.29000000    30.34000000
   O     55.39000000    11.16000000    29.43000000
   H     56.30000000    11.43000000    29.48000000
   H     55.01000000    11.42000000    30.28000000
   O     54.67000000     7.66000000    28.37000000
   H     54.71000000     7.02000000    27.66000000
   H     55.37000000     7.41000000    28.96000000
   O     54.87000000    12.50000000    26.33000000
   H     55.20000000    13.36000000    26.06000000
   H     55.19000000    11.90000000    25.66000000

Ca 1.00



