%chk=loop2.cluster18.chk
%nprocshared=20
%mem=10GB
%nosave
#b3lyp/svp scf=(tight,noincore,xqc) Test 
#IOP(5/87=12) Density=Current Pop=(MK,readradii) iop(6/33=2) iop(6/42=6)

loop2.cluster18 

   -2  1 
   C     41.95000000    64.95000000   117.42000000
   C     42.10000000    64.73000000   118.92000000
   O     42.62000000    65.61000000   119.59000000
   H     41.35600000    65.84600000   117.24200000
   H     42.93500000    65.07300000   116.97000000
   H     41.45100000    64.09000000   116.97400000
   N     41.63000000    63.62000000   119.50000000
   C     41.93000000    63.17000000   120.84000000
   C     43.32000000    62.59000000   121.02000000
   O     43.90000000    62.71000000   122.10000000
   C     40.85000000    62.21000000   121.32000000
   C     40.98000000    61.90000000   122.81000000
   O     40.60000000    62.83000000   123.54000000
   O     41.44000000    60.80000000   123.20000000
   H     41.03000000    63.06000000   118.91000000
   H     41.99000000    64.01000000   121.54000000
   H     40.94000000    61.27000000   120.78000000
   H     39.81000000    62.50000000   121.16000000
   N     43.95000000    61.96000000   120.03000000
   C     45.39000000    61.80000000   119.96000000
   C     46.13000000    63.11000000   120.18000000
   O     47.07000000    63.10000000   120.97000000
   C     45.83000000    60.56000000   120.73000000
   H     43.42000000    61.71000000   119.21000000
   H     45.52000000    61.50000000   118.92000000
   H     45.18000000    59.75000000   120.41000000
   H     46.87000000    60.26000000   120.58000000
   H     45.69000000    60.75000000   121.80000000
   N     45.71000000    64.24000000   119.60000000
   C     46.23000000    65.56000000   119.92000000
   C     46.00000000    65.96000000   121.37000000
   O     47.00000000    66.18000000   122.06000000
   C     47.67000000    65.74000000   119.44000000
   C     47.88000000    65.83000000   117.93000000
   O     48.55000000    66.80000000   117.52000000
   O     47.48000000    65.04000000   117.06000000
   H     44.93000000    64.06000000   118.99000000
   H     45.57000000    66.19000000   119.33000000
   H     48.25000000    64.91000000   119.83000000
   H     48.09000000    66.61000000   119.95000000
   N     44.76000000    66.03000000   121.85000000
   C     44.42000000    66.42000000   123.21000000
   C     44.42000000    67.93000000   123.42000000
   O     44.09000000    68.63000000   122.46000000
   H     43.97000000    65.89000000   121.24000000
   H     45.21000000    65.96000000   123.81000000
   H     43.43000000    66.06000000   123.48000000
   N     44.68000000    68.34000000   124.66000000
   C     44.77000000    69.76000000   124.95000000
   C     43.58000000    70.62000000   124.56000000
   O     43.73000000    71.45000000   123.67000000
   C     46.14000000    70.30000000   124.57000000
   C     47.26000000    69.55000000   125.27000000
   N     47.82000000    68.51000000   124.65000000
   O     47.78000000    69.90000000   126.32000000
   H     44.73000000    67.65000000   125.39000000
   H     44.82000000    69.77000000   126.04000000
   H     46.15000000    71.36000000   124.86000000
   H     46.30000000    70.12000000   123.51000000
   H     47.45000000    68.08000000   123.81000000
   H     48.65000000    68.13000000   125.08000000
   N     42.40000000    70.36000000   125.14000000
   C     41.25000000    71.17000000   124.82000000
   C     40.58000000    70.89000000   123.49000000
   O     39.36000000    70.72000000   123.46000000
   H     42.35000000    69.59000000   125.80000000
   H     41.46000000    72.23000000   124.93000000
   H     40.45000000    71.01000000   125.55000000
   N     41.34000000    70.60000000   122.43000000
   C     40.70000000    70.08000000   121.24000000
   C     41.13000000    70.84000000   119.99000000
   O     42.28000000    71.25000000   119.84000000
   C     41.15000000    68.67000000   120.86000000
   C     40.95000000    67.67000000   121.99000000
   O     40.36000000    68.26000000   119.77000000
   H     42.34000000    70.77000000   122.45000000
   H     39.61000000    70.07000000   121.26000000
   H     42.21000000    68.68000000   120.58000000
   H     40.63000000    68.72000000   118.97000000
   H     39.94000000    67.67000000   122.38000000
   H     41.21000000    66.67000000   121.63000000
   H     41.69000000    67.93000000   122.75000000
   N     40.23000000    71.02000000   119.02000000
   C     40.46000000    71.39000000   117.64000000
   C     41.49000000    70.46000000   117.01000000
   O     41.80000000    69.40000000   117.55000000
   C     39.19000000    71.20000000   116.82000000
   C     38.67000000    69.77000000   116.86000000
   C     38.15000000    72.14000000   117.43000000
   C     37.28000000    69.54000000   116.27000000
   H     39.28000000    70.84000000   119.30000000
   H     40.79000000    72.43000000   117.54000000
   H     39.25000000    71.54000000   115.78000000
   H     38.63000000    69.45000000   117.91000000
   H     39.40000000    69.08000000   116.44000000
   H     38.62000000    73.12000000   117.55000000
   H     37.28000000    72.25000000   116.79000000
   H     37.84000000    71.89000000   118.44000000
   H     36.51000000    70.12000000   116.77000000
   H     37.27000000    69.71000000   115.19000000
   H     37.05000000    68.50000000   116.51000000
   N     42.16000000    70.83000000   115.92000000
   C     43.35000000    70.18000000   115.42000000
   C     44.62000000    70.53000000   116.19000000
   O     45.62000000    70.93000000   115.59000000
   C     43.45000000    70.42000000   113.92000000
   C     44.13000000    69.24000000   113.23000000
   O     44.37000000    69.28000000   112.01000000
   O     44.43000000    68.18000000   113.82000000
   H     41.89000000    71.63000000   115.36000000
   H     43.23000000    69.10000000   115.55000000
   H     44.04000000    71.32000000   113.77000000
   H     42.50000000    70.57000000   113.41000000
   N     44.57000000    70.65000000   117.52000000
   C     45.69000000    71.06000000   118.35000000
   C     46.28000000    72.42000000   118.01000000
   O     47.51000000    72.50000000   117.97000000
   C     45.33000000    70.87000000   119.82000000
   C     46.58000000    70.81000000   120.67000000
   C     46.98000000    71.90000000   121.45000000
   C     47.27000000    69.59000000   120.70000000
   C     48.16000000    71.87000000   122.20000000
   C     48.39000000    69.56000000   121.55000000
   C     48.88000000    70.67000000   122.23000000
   H     43.65000000    70.56000000   117.92000000
   H     46.49000000    70.38000000   118.08000000
   H     44.67000000    70.02000000   119.98000000
   H     44.78000000    71.73000000   120.18000000
   H     46.39000000    72.81000000   121.45000000
   H     46.80000000    68.77000000   120.19000000
   H     48.42000000    72.73000000   122.80000000
   H     48.91000000    68.62000000   121.65000000
   H     49.70000000    70.60000000   122.94000000
   N     45.47000000    73.43000000   117.69000000
   C     44.14000000    73.68000000   118.20000000
   C     43.19000000    74.06000000   117.07000000
   O     42.11000000    74.59000000   117.32000000
   C     44.36000000    74.81000000   119.20000000
   C     45.61000000    75.52000000   118.68000000
   C     46.06000000    74.73000000   117.46000000
   H     43.79000000    72.89000000   118.86000000
   H     43.55000000    75.54000000   119.11000000
   H     44.60000000    74.47000000   120.21000000
   H     45.49000000    76.59000000   118.52000000
   H     46.41000000    75.43000000   119.42000000
   H     45.74000000    75.19000000   116.53000000
   H     47.15000000    74.69000000   117.35000000
   N     43.51000000    73.86000000   115.79000000
   C     42.84000000    74.57000000   114.71000000
   C     41.52000000    73.97000000   114.26000000
   O     41.40000000    72.76000000   114.08000000
   C     43.88000000    74.86000000   113.63000000
   C     43.47000000    75.79000000   112.49000000
   C     43.01000000    77.14000000   113.03000000
   O     41.95000000    77.24000000   113.68000000
   O     43.78000000    78.12000000   112.93000000
   H     44.41000000    73.43000000   115.67000000
   H     42.56000000    75.51000000   115.18000000
   H     44.05000000    73.94000000   113.07000000
   H     44.81000000    75.32000000   113.97000000
   H     42.64000000    75.41000000   111.90000000
   H     44.23000000    75.94000000   111.72000000
   N     40.44000000    74.73000000   114.03000000
   C     39.22000000    74.36000000   113.35000000
   H     38.46400000    75.12700000   113.51800000
   H     39.41300000    74.26800000   112.28100000
   H     38.86200000    73.40700000   113.73800000
   H     40.51000000    75.71000000   114.27000000
  Ca     47.92000000    66.62000000   114.87300000
   O     46.33000000    64.57000000   114.17300000
   H     46.85000000    63.83000000   113.88300000
   H     45.44000000    64.36000000   113.88300000
   O     49.77000000    67.68000000   113.33300000
   H     49.67000000    68.48000000   112.81300000
   H     50.54000000    67.24000000   112.95300000
   O     49.73000000    64.91000000   114.61300000
   H     50.09000000    64.42000000   115.36300000
   H     50.23000000    64.58000000   113.86300000
   O     47.62000000    69.17000000   114.74300000
   H     46.88000000    69.78000000   114.73300000
   H     48.31000000    69.61000000   114.25300000
   O     45.46000000    67.17000000   116.12300000
   H     45.02000000    67.37000000   115.30300000
   H     44.87000000    67.51000000   116.79300000
   O     46.49000000    67.16000000   112.49300000
   H     46.14000000    66.65000000   111.75300000
   H     45.74000000    67.65000000   112.82300000

Ca 1.00



