%chk=loop3.cluster197.chk
%nprocshared=20
%mem=10GB
%nosave
#b3lyp/svp scf=(tight,noincore,xqc) Test 
#IOP(5/87=12) Density=Current Pop=(MK,readradii) iop(6/33=2) iop(6/42=6)

loop3.cluster197 

   0  1 
   C     57.74000000    27.23000000    49.08000000
   C     57.77000000    26.10000000    50.10000000
   O     57.24000000    25.03000000    49.81000000
   H     57.74100000    28.18800000    49.60000000
   H     58.61900000    27.16500000    48.43900000
   H     56.83900000    27.14800000    48.47200000
   N     58.39000000    26.31000000    51.26000000
   C     58.46000000    25.28000000    52.27000000
   C     58.45000000    25.88000000    53.67000000
   O     59.11000000    26.90000000    53.87000000
   C     59.67000000    24.36000000    52.11000000
   C     59.69000000    23.25000000    53.15000000
   O     59.24000000    22.13000000    52.83000000
   O     60.23000000    23.32000000    54.28000000
   H     58.85000000    27.19000000    51.46000000
   H     57.53000000    24.71000000    52.20000000
   H     60.63000000    24.85000000    52.28000000
   H     59.65000000    23.92000000    51.11000000
   N     57.81000000    25.22000000    54.64000000
   C     57.52000000    25.75000000    55.95000000
   C     58.58000000    25.51000000    57.03000000
   O     58.37000000    26.03000000    58.12000000
   C     56.16000000    25.21000000    56.36000000
   C     55.09000000    25.75000000    55.41000000
   C     53.83000000    24.91000000    55.64000000
   C     52.89000000    25.49000000    54.59000000
   N     51.66000000    24.70000000    54.66000000
   H     57.32000000    24.39000000    54.32000000
   H     57.37000000    26.82000000    55.89000000
   H     56.04000000    25.60000000    57.37000000
   H     56.13000000    24.12000000    56.48000000
   H     55.39000000    25.55000000    54.38000000
   H     54.86000000    26.80000000    55.54000000
   H     53.42000000    25.09000000    56.63000000
   H     54.11000000    23.87000000    55.51000000
   H     53.26000000    25.44000000    53.56000000
   H     52.84000000    26.57000000    54.78000000
   H     51.81000000    23.70000000    54.73000000
   H     51.06000000    25.02000000    55.41000000
   H     51.17000000    24.88000000    53.80000000
   N     59.58000000    24.65000000    56.81000000
   C     60.81000000    24.73000000    57.58000000
   C     62.13000000    25.04000000    56.90000000
   O     63.22000000    25.03000000    57.47000000
   C     60.98000000    23.39000000    58.29000000
   C     60.79000000    22.16000000    57.41000000
   O     61.74000000    21.87000000    56.64000000
   O     59.69000000    21.58000000    57.27000000
   H     59.57000000    24.09000000    55.97000000
   H     60.65000000    25.42000000    58.40000000
   H     60.22000000    23.43000000    59.07000000
   H     61.92000000    23.42000000    58.83000000
   N     62.00000000    25.40000000    55.62000000
   C     63.12000000    25.71000000    54.76000000
   C     64.00000000    24.57000000    54.24000000
   O     65.15000000    24.71000000    53.82000000
   H     61.06000000    25.58000000    55.28000000
   H     63.69000000    26.44000000    55.33000000
   H     62.78000000    26.24000000    53.87000000
   N     63.48000000    23.34000000    54.25000000
   C     64.09000000    22.24000000    53.53000000
   C     63.04000000    21.67000000    52.58000000
   O     61.91000000    21.38000000    52.96000000
   C     64.62000000    21.21000000    54.53000000
   C     65.12000000    19.95000000    53.85000000
   N     66.24000000    19.96000000    53.13000000
   O     64.36000000    18.98000000    53.85000000
   H     62.54000000    23.21000000    54.60000000
   H     64.92000000    22.62000000    52.95000000
   H     63.81000000    21.06000000    55.24000000
   H     65.31000000    21.74000000    55.19000000
   H     66.99000000    20.63000000    53.28000000
   H     66.52000000    19.04000000    52.81000000
   N     63.30000000    21.49000000    51.28000000
   C     62.39000000    21.07000000    50.24000000
   C     61.61000000    19.76000000    50.36000000
   O     60.71000000    19.51000000    49.56000000
   H     64.20000000    21.83000000    50.97000000
   H     63.09000000    20.93000000    49.41000000
   H     61.65000000    21.82000000    49.96000000
   N     61.86000000    18.97000000    51.40000000
   C     61.16000000    17.71000000    51.59000000
   C     59.84000000    17.90000000    52.32000000
   O     59.90000000    18.48000000    53.40000000
   C     62.03000000    16.71000000    52.36000000
   C     61.76000000    15.24000000    52.21000000
   C     62.47000000    14.57000000    51.20000000
   C     60.84000000    14.61000000    53.06000000
   C     62.13000000    13.25000000    50.90000000
   C     60.67000000    13.23000000    52.86000000
   C     61.29000000    12.55000000    51.79000000
   O     61.02000000    11.22000000    51.63000000
   H     62.69000000    19.16000000    51.94000000
   H     60.98000000    17.21000000    50.64000000
   H     62.09000000    16.90000000    53.43000000
   H     63.09000000    16.70000000    52.08000000
   H     63.28000000    15.04000000    50.66000000
   H     60.31000000    15.16000000    53.82000000
   H     62.59000000    12.70000000    50.10000000
   H     60.06000000    12.69000000    53.56000000
   H     60.39000000    10.93000000    52.30000000
   N     58.72000000    17.35000000    51.85000000
   C     57.39000000    17.18000000    52.41000000
   C     57.14000000    16.72000000    53.84000000
   O     58.10000000    16.61000000    54.60000000
   C     56.53000000    18.39000000    52.06000000
   C     56.25000000    18.58000000    50.57000000
   C     56.91000000    19.64000000    52.85000000
   C     54.93000000    19.26000000    50.19000000
   H     58.74000000    16.85000000    50.97000000
   H     56.93000000    16.34000000    51.89000000
   H     55.58000000    18.10000000    52.51000000
   H     56.16000000    17.55000000    50.21000000
   H     57.11000000    19.09000000    50.14000000
   H     57.12000000    19.66000000    53.91000000
   H     57.84000000    20.01000000    52.43000000
   H     56.04000000    20.30000000    52.75000000
   H     54.65000000    19.01000000    49.17000000
   H     54.17000000    19.17000000    50.97000000
   H     55.06000000    20.33000000    50.04000000
   N     55.91000000    16.33000000    54.18000000
   C     55.41000000    16.10000000    55.52000000
   C     54.21000000    15.18000000    55.60000000
   O     53.94000000    14.59000000    56.65000000
   C     54.99000000    17.48000000    56.04000000
   O     53.97000000    18.00000000    55.23000000
   H     55.13000000    16.37000000    53.54000000
   H     56.18000000    15.59000000    56.10000000
   H     55.85000000    18.15000000    56.01000000
   H     54.54000000    17.33000000    57.02000000
   H     53.87000000    18.90000000    55.54000000
   N     53.53000000    14.91000000    54.48000000
   C     52.39000000    14.03000000    54.26000000
   C     51.46000000    13.82000000    55.44000000
   O     51.13000000    12.69000000    55.81000000
   C     52.94000000    12.70000000    53.75000000
   H     53.98000000    15.29000000    53.66000000
   H     51.84000000    14.44000000    53.41000000
   H     53.56000000    12.87000000    52.87000000
   H     53.51000000    12.19000000    54.53000000
   H     52.06000000    12.15000000    53.41000000
   N     50.91000000    14.85000000    56.09000000
   C     50.83000000    16.24000000    55.68000000
   C     49.55000000    16.46000000    54.89000000
   O     48.49000000    15.96000000    55.27000000
   C     50.86000000    17.14000000    56.91000000
   H     50.41000000    14.65000000    56.94000000
   H     51.70000000    16.49000000    55.08000000
   H     51.69000000    16.96000000    57.60000000
   H     50.80000000    18.19000000    56.63000000
   H     49.93000000    16.91000000    57.42000000
   N     49.51000000    17.25000000    53.82000000
   C     50.64000000    17.84000000    53.13000000
   C     50.54000000    17.70000000    51.62000000
   O     51.50000000    17.47000000    50.88000000
   C     50.75000000    19.31000000    53.53000000
   C     51.96000000    20.11000000    53.04000000
   C     51.81000000    21.57000000    53.47000000
   O     50.74000000    22.14000000    53.17000000
   O     52.70000000    22.10000000    54.17000000
   H     48.58000000    17.57000000    53.61000000
   H     51.58000000    17.46000000    53.52000000
   H     50.76000000    19.47000000    54.60000000
   H     49.84000000    19.84000000    53.23000000
   H     52.17000000    20.06000000    51.97000000
   H     52.87000000    19.67000000    53.43000000
   N     49.32000000    17.50000000    51.11000000
   C     48.97000000    16.86000000    49.85000000
   H     48.12500000    17.38100000    49.40100000
   H     49.82300000    16.90000000    49.17200000
   H     48.69900000    15.82000000    50.03300000
   H     48.57000000    17.75000000    51.73000000
  Ca     60.12000000    20.78000000    54.82000000
   O     58.71000000    18.99000000    55.95000000
   H     58.43000000    18.98000000    56.87000000
   H     58.61000000    18.08000000    55.67000000
   O     57.24000000    22.15000000    55.02000000
   H     56.91000000    21.72000000    55.81000000
   H     56.45000000    22.40000000    54.54000000
   O     62.07000000    18.90000000    55.29000000
   H     62.34000000    18.15000000    55.81000000
   H     62.84000000    19.14000000    54.77000000

Ca 1.00



