%chk=loop4.cluster43.chk
%nprocshared=20
%mem=10GB
%nosave
#b3lyp/svp scf=(tight,noincore,xqc) Test 
#IOP(5/87=12) Density=Current Pop=(MK,readradii) iop(6/33=2) iop(6/42=6)

loop4.cluster43 

   -3  1 
   C     98.12000000    80.98000000    36.69000000
   C     99.37000000    80.18000000    37.04000000
   O     99.51000000    79.05000000    36.58000000
   H     97.32700000    80.74200000    37.39900000
   H     98.34400000    82.04600000    36.74000000
   H     97.79400000    80.72400000    35.68200000
   N    100.30000000    80.70000000    37.85000000
   C    101.64000000    80.31000000    38.23000000
   C    102.62000000    79.88000000    37.14000000
   O    103.80000000    79.78000000    37.47000000
   C    101.59000000    79.37000000    39.43000000
   C    100.83000000    78.07000000    39.17000000
   O     99.93000000    77.74000000    39.98000000
   O    101.12000000    77.30000000    38.23000000
   H     99.95000000    81.52000000    38.31000000
   H    102.05000000    81.27000000    38.55000000
   H    101.14000000    79.88000000    40.28000000
   H    102.64000000    79.22000000    39.69000000
   N    102.19000000    79.68000000    35.90000000
   C    103.00000000    78.94000000    34.95000000
   C    102.81000000    77.44000000    35.14000000
   O    101.68000000    77.03000000    35.37000000
   C    102.73000000    79.38000000    33.52000000
   C    103.48000000    80.69000000    33.30000000
   C    101.25000000    79.63000000    33.24000000
   C    104.02000000    80.93000000    31.89000000
   H    101.19000000    79.66000000    35.71000000
   H    104.05000000    79.06000000    35.21000000
   H    103.15000000    78.67000000    32.81000000
   H    104.37000000    80.58000000    33.93000000
   H    102.98000000    81.56000000    33.73000000
   H    100.78000000    80.38000000    33.88000000
   H    101.22000000    79.94000000    32.19000000
   H    100.74000000    78.69000000    33.42000000
   H    104.70000000    81.77000000    32.02000000
   H    104.58000000    80.08000000    31.50000000
   H    103.25000000    81.30000000    31.22000000
   N    103.83000000    76.67000000    34.74000000
   C    103.87000000    75.23000000    34.73000000
   C    103.94000000    74.68000000    36.15000000
   O    104.45000000    75.36000000    37.04000000
   C    105.20000000    74.85000000    34.09000000
   C    106.50000000    75.53000000    34.51000000
   O    106.75000000    76.63000000    33.97000000
   O    107.35000000    75.00000000    35.26000000
   H    104.67000000    77.10000000    34.36000000
   H    103.03000000    74.83000000    34.16000000
   H    105.12000000    74.98000000    33.01000000
   H    105.50000000    73.82000000    34.29000000
   N    103.53000000    73.43000000    36.42000000
   C    102.74000000    72.67000000    35.47000000
   C    101.34000000    73.04000000    35.02000000
   O    100.70000000    73.86000000    35.68000000
   H    103.55000000    73.19000000    37.40000000
   H    102.59000000    71.68000000    35.90000000
   H    103.41000000    72.50000000    34.63000000
   N    100.86000000    72.66000000    33.84000000
   C    101.63000000    72.20000000    32.70000000
   C    100.82000000    72.69000000    31.51000000
   O     99.61000000    72.54000000    31.38000000
   C    101.94000000    70.70000000    32.75000000
   C    103.20000000    70.58000000    31.92000000
   O    104.29000000    70.99000000    32.37000000
   O    103.06000000    70.09000000    30.78000000
   H     99.89000000    72.91000000    33.68000000
   H    102.56000000    72.76000000    32.75000000
   H    101.07000000    70.16000000    32.36000000
   H    102.12000000    70.35000000    33.77000000
   N    101.49000000    73.11000000    30.43000000
   C    102.88000000    73.44000000    30.21000000
   C    103.13000000    74.15000000    28.89000000
   O    104.24000000    74.10000000    28.35000000
   H    100.92000000    73.16000000    29.59000000
   H    103.54000000    72.58000000    30.11000000
   H    103.17000000    74.11000000    31.02000000
   N    102.10000000    74.71000000    28.25000000
   C    102.19000000    75.40000000    26.98000000
   C    101.45000000    76.72000000    27.14000000
   O    100.48000000    76.94000000    26.43000000
   C    101.64000000    74.48000000    25.89000000
   C    102.28000000    73.12000000    25.60000000
   C    101.77000000    72.57000000    24.28000000
   N    102.35000000    71.48000000    23.79000000
   O    100.76000000    72.96000000    23.70000000
   H    101.20000000    74.76000000    28.70000000
   H    103.24000000    75.59000000    26.76000000
   H    101.70000000    75.01000000    24.95000000
   H    100.57000000    74.30000000    26.02000000
   H    102.09000000    72.42000000    26.41000000
   H    103.36000000    73.20000000    25.52000000
   H    102.91000000    70.94000000    24.44000000
   H    101.93000000    71.00000000    23.01000000
   N    101.98000000    77.60000000    28.00000000
   C    101.56000000    78.98000000    27.91000000
   C    100.23000000    79.19000000    28.61000000
   O    100.06000000    78.89000000    29.79000000
   C    102.64000000    79.90000000    28.47000000
   C    102.30000000    81.37000000    28.22000000
   C    104.04000000    79.64000000    27.90000000
   H    102.74000000    77.31000000    28.60000000
   H    101.45000000    79.22000000    26.85000000
   H    102.73000000    79.67000000    29.53000000
   H    102.11000000    81.43000000    27.15000000
   H    101.42000000    81.71000000    28.77000000
   H    103.19000000    81.96000000    28.43000000
   H    104.78000000    80.00000000    28.61000000
   H    104.19000000    78.57000000    27.77000000
   H    104.22000000    80.17000000    26.97000000
   N     99.26000000    79.62000000    27.80000000
   C     97.90000000    79.93000000    28.20000000
   C     97.03000000    78.71000000    27.99000000
   O     96.04000000    78.60000000    28.71000000
   C     97.52000000    81.14000000    27.35000000
   C     96.05000000    81.53000000    27.47000000
   N     95.21000000    81.07000000    26.55000000
   O     95.58000000    82.21000000    28.38000000
   H     99.55000000    79.83000000    26.85000000
   H     97.90000000    80.14000000    29.27000000
   H     97.82000000    81.02000000    26.31000000
   H     98.09000000    82.00000000    27.69000000
   H     95.64000000    80.60000000    25.76000000
   H     94.25000000    81.37000000    26.60000000
   N     97.31000000    77.79000000    27.06000000
   C     96.67000000    76.51000000    26.85000000
   C     96.57000000    75.75000000    28.17000000
   O     97.47000000    75.80000000    29.01000000
   C     97.46000000    75.64000000    25.88000000
   C     97.19000000    75.91000000    24.42000000
   C     98.21000000    76.42000000    23.61000000
   C     95.97000000    75.58000000    23.81000000
   C     98.02000000    76.59000000    22.23000000
   C     95.70000000    75.75000000    22.45000000
   C     96.78000000    76.21000000    21.68000000
   O     96.65000000    76.23000000    20.32000000
   H     98.21000000    77.93000000    26.62000000
   H     95.66000000    76.61000000    26.45000000
   H     97.19000000    74.61000000    26.13000000
   H     98.51000000    75.62000000    26.14000000
   H     99.18000000    76.60000000    24.03000000
   H     95.23000000    75.11000000    24.44000000
   H     98.84000000    76.99000000    21.66000000
   H     94.74000000    75.58000000    21.97000000
   H     97.49000000    76.51000000    19.95000000
   N     95.49000000    74.98000000    28.30000000
   C     95.12000000    74.31000000    29.53000000
   C     94.86000000    75.11000000    30.80000000
   O     94.06000000    74.76000000    31.66000000
   C     95.97000000    73.08000000    29.82000000
   C     95.91000000    72.06000000    28.69000000
   C     96.57000000    70.77000000    29.18000000
   O     96.12000000    70.12000000    30.14000000
   O     97.68000000    70.44000000    28.72000000
   H     94.86000000    74.97000000    27.51000000
   H     94.12000000    73.91000000    29.38000000
   H     95.73000000    72.65000000    30.79000000
   H     97.03000000    73.33000000    29.94000000
   H     96.42000000    72.40000000    27.79000000
   H     94.85000000    71.98000000    28.45000000
   N     95.56000000    76.22000000    31.05000000
   C     95.32000000    77.00000000    32.24000000
   C     93.95000000    77.67000000    32.22000000
   O     93.43000000    77.96000000    33.30000000
   C     96.42000000    78.05000000    32.31000000
   C     97.80000000    77.46000000    32.57000000
   C     98.12000000    76.83000000    33.93000000
   O     99.18000000    76.18000000    34.04000000
   O     97.42000000    76.95000000    34.95000000
   H     96.27000000    76.48000000    30.38000000
   H     95.50000000    76.36000000    33.10000000
   H     96.04000000    78.84000000    32.96000000
   H     96.37000000    78.50000000    31.32000000
   H     98.56000000    78.21000000    32.34000000
   H     98.07000000    76.66000000    31.88000000
   N     93.41000000    78.11000000    31.08000000
   C     92.15000000    78.81000000    30.97000000
   H     91.40200000    78.31000000    31.58600000
   H     92.27400000    79.83800000    31.31100000
   H     91.82300000    78.80900000    29.93000000
   H     93.88000000    77.83000000    30.23000000
  Ca     99.28000000    76.32000000    36.66000000
   O     97.54000000    77.04000000    38.72000000
   H     97.09000000    76.35000000    39.20000000
   H     98.21000000    77.35000000    39.33000000
   O     99.77500000    74.43000000    38.54000000
   H    100.69500000    74.20000000    38.67000000
   H     99.33500000    73.60000000    38.35000000
   O     97.40000000    74.32000000    36.62000000
   H     96.53000000    74.31000000    36.22000000
   H     97.76000000    73.45000000    36.46000000

Ca 1.00



