%chk=loop1.cluster41.chk
%nprocshared=20
%mem=10GB
%nosave
#b3lyp/svp scf=(tight,noincore,xqc) Test 
#IOP(5/87=12) Density=Current Pop=(MK,readradii) iop(6/33=2) iop(6/42=6)

loop1.cluster41 

   0  1 
   C     47.78000000    39.53000000     5.19000000
   C     48.04000000    39.18000000     3.74000000
   O     49.00000000    39.66000000     3.15000000
   H     46.73400000    39.33600000     5.42800000
   H     48.41700000    38.92100000     5.83100000
   H     48.00000000    40.58500000     5.35500000
   N     47.18000000    38.37000000     3.11000000
   C     47.55000000    37.65000000     1.92000000
   C     46.81000000    38.31000000     0.76000000
   O     45.59000000    38.28000000     0.77000000
   C     47.26000000    36.16000000     2.09000000
   C     45.84000000    35.82000000     2.51000000
   O     45.25000000    34.80000000     2.08000000
   O     45.34000000    36.45000000     3.46000000
   H     46.23000000    38.27000000     3.47000000
   H     48.63000000    37.71000000     1.74000000
   H     47.85000000    35.81000000     2.94000000
   H     47.57000000    35.56000000     1.23000000
   N     47.58000000    38.91000000    -0.16000000
   C     46.91000000    39.75000000    -1.12000000
   C     47.69000000    39.79000000    -2.43000000
   O     47.89000000    40.90000000    -2.94000000
   C     46.76000000    41.17000000    -0.58000000
   C     45.76000000    41.28000000     0.57000000
   C     44.28000000    41.17000000     0.24000000
   C     43.40000000    41.20000000     1.49000000
   N     41.97000000    40.96000000     1.29000000
   H     48.57000000    38.78000000    -0.26000000
   H     45.91000000    39.34000000    -1.30000000
   H     46.30000000    41.77000000    -1.37000000
   H     47.75000000    41.60000000    -0.41000000
   H     45.90000000    42.29000000     0.96000000
   H     46.04000000    40.56000000     1.33000000
   H     44.09000000    40.19000000    -0.21000000
   H     43.93000000    41.89000000    -0.51000000
   H     43.56000000    42.19000000     1.91000000
   H     43.80000000    40.49000000     2.22000000
   H     41.68000000    41.47000000     0.46000000
   H     41.80000000    39.99000000     1.07000000
   H     41.45000000    41.41000000     2.03000000
   N     48.40000000    38.82000000    -3.01000000
   C     48.45000000    37.38000000    -2.84000000
   C     47.33000000    36.74000000    -2.04000000
   O     47.65000000    35.95000000    -1.16000000
   C     49.83000000    36.80000000    -2.58000000
   C     50.72000000    37.60000000    -1.64000000
   O     51.94000000    37.61000000    -1.92000000
   O     50.25000000    38.32000000    -0.73000000
   H     49.10000000    39.15000000    -3.66000000
   H     48.25000000    37.13000000    -3.89000000
   H     50.29000000    36.84000000    -3.56000000
   H     49.70000000    35.78000000    -2.22000000
   N     46.04000000    36.98000000    -2.30000000
   C     45.47000000    37.47000000    -3.54000000
   C     44.28000000    36.61000000    -3.93000000
   O     43.16000000    37.09000000    -4.10000000
   H     45.39000000    36.51000000    -1.68000000
   H     46.20000000    37.54000000    -4.35000000
   H     45.03000000    38.44000000    -3.32000000
   N     44.47000000    35.31000000    -4.15000000
   C     45.63000000    34.43000000    -4.15000000
   C     45.41000000    33.35000000    -3.09000000
   O     44.43000000    32.62000000    -3.11000000
   C     46.00000000    33.94000000    -5.54000000
   C     47.03000000    32.82000000    -5.57000000
   O     47.44000000    32.34000000    -4.50000000
   O     47.40000000    32.33000000    -6.66000000
   H     43.64000000    35.02000000    -4.65000000
   H     46.49000000    35.01000000    -3.79000000
   H     46.42000000    34.83000000    -6.03000000
   H     45.10000000    33.54000000    -6.02000000
   N     46.30000000    33.37000000    -2.09000000
   C     46.22000000    32.42000000    -1.00000000
   C     47.22000000    32.39000000     0.15000000
   O     47.06000000    31.59000000     1.07000000
   H     47.00000000    34.10000000    -2.08000000
   H     46.27000000    31.46000000    -1.51000000
   H     45.25000000    32.48000000    -0.50000000
   N     48.24000000    33.24000000     0.20000000
   C     49.36000000    33.27000000     1.12000000
   C     50.07000000    34.61000000     1.17000000
   O     50.16000000    35.34000000     0.19000000
   C     50.45000000    32.33000000     0.62000000
   C     50.01000000    30.87000000     0.74000000
   O     51.62000000    32.45000000     1.39000000
   H     48.24000000    33.88000000    -0.59000000
   H     48.99000000    32.97000000     2.10000000
   H     50.65000000    32.62000000    -0.42000000
   H     52.04000000    31.63000000     1.11000000
   H     50.78000000    30.18000000     0.40000000
   H     49.64000000    30.67000000     1.74000000
   H     49.17000000    30.64000000     0.08000000
   N     50.68000000    34.96000000     2.30000000
   C     51.54000000    36.11000000     2.47000000
   C     52.62000000    36.39000000     1.44000000
   O     52.70000000    37.55000000     1.03000000
   C     52.09000000    36.14000000     3.90000000
   C     52.80000000    37.43000000     4.32000000
   C     52.95000000    34.91000000     4.13000000
   C     51.86000000    38.63000000     4.34000000
   H     50.63000000    34.30000000     3.06000000
   H     50.78000000    36.89000000     2.44000000
   H     51.29000000    35.92000000     4.61000000
   H     53.69000000    37.55000000     3.71000000
   H     53.08000000    37.19000000     5.35000000
   H     54.00000000    34.96000000     3.84000000
   H     52.95000000    34.80000000     5.22000000
   H     52.48000000    33.99000000     3.78000000
   H     52.43000000    39.45000000     4.78000000
   H     51.63000000    38.87000000     3.30000000
   H     50.91000000    38.40000000     4.82000000
   N     53.40000000    35.39000000     1.01000000
   C     54.74000000    35.47000000     0.46000000
   C     55.83000000    36.11000000     1.30000000
   O     56.78000000    35.40000000     1.65000000
   C     54.72000000    35.85000000    -1.02000000
   C     56.08000000    35.69000000    -1.69000000
   O     54.37000000    37.20000000    -1.21000000
   H     53.13000000    34.46000000     1.30000000
   H     55.10000000    34.45000000     0.40000000
   H     54.01000000    35.16000000    -1.50000000
   H     53.45000000    37.26000000    -1.48000000
   H     56.47000000    34.71000000    -1.43000000
   H     56.01000000    35.81000000    -2.78000000
   H     56.76000000    36.49000000    -1.39000000
   N     55.57000000    37.36000000     1.66000000
   C     56.46000000    38.25000000     2.37000000
   C     57.80000000    38.47000000     1.68000000
   O     58.17000000    37.77000000     0.73000000
   C     56.62000000    37.71000000     3.79000000
   C     56.97000000    38.80000000     4.80000000
   O     57.61000000    36.70000000     3.85000000
   H     54.77000000    37.78000000     1.19000000
   H     55.89000000    39.17000000     2.47000000
   H     55.67000000    37.37000000     4.21000000
   H     57.16000000    35.89000000     3.59000000
   H     57.93000000    39.25000000     4.56000000
   H     56.26000000    39.63000000     4.83000000
   H     57.05000000    38.38000000     5.80000000
   N     58.51000000    39.55000000     2.04000000
   C     59.79000000    39.90000000     1.47000000
   C     59.95000000    41.22000000     0.73000000
   O     61.03000000    41.36000000     0.14000000
   C     60.89000000    39.73000000     2.52000000
   C     60.92000000    38.41000000     3.27000000
   C     61.07000000    37.19000000     2.36000000
   C     60.55000000    35.98000000     3.13000000
   N     61.10000000    34.71000000     2.63000000
   H     58.08000000    40.20000000     2.68000000
   H     60.04000000    39.19000000     0.68000000
   H     60.72000000    40.49000000     3.29000000
   H     61.85000000    39.95000000     2.05000000
   H     60.06000000    38.31000000     3.93000000
   H     61.78000000    38.43000000     3.95000000
   H     62.10000000    37.07000000     2.03000000
   H     60.42000000    37.24000000     1.48000000
   H     59.47000000    35.94000000     3.00000000
   H     60.70000000    36.13000000     4.20000000
   H     60.72000000    34.38000000     1.75000000
   H     62.11000000    34.74000000     2.63000000
   H     60.87000000    33.96000000     3.27000000
   N     59.10000000    42.25000000     0.79000000
   C     57.99000000    42.56000000     1.66000000
   C     58.16000000    42.52000000     3.18000000
   O     57.65000000    41.61000000     3.83000000
   C     56.70000000    42.01000000     1.04000000
   C     55.44000000    42.48000000     1.76000000
   C     54.25000000    41.79000000     1.11000000
   O     53.84000000    40.68000000     1.54000000
   O     53.66000000    42.32000000     0.14000000
   H     59.46000000    43.06000000     0.32000000
   H     57.85000000    43.62000000     1.48000000
   H     56.73000000    40.92000000     1.01000000
   H     56.67000000    42.36000000     0.01000000
   H     55.35000000    43.55000000     1.61000000
   H     55.46000000    42.21000000     2.81000000
   N     59.13000000    43.31000000     3.64000000
   C     59.34000000    43.48000000     5.06000000
   H     60.05800000    44.28300000     5.22700000
   H     58.39500000    43.73300000     5.54000000
   H     59.72700000    42.55300000     5.48400000
   H     59.54000000    43.90000000     2.93000000
  Ca     52.27000000    39.80000000    -0.30500000
   O     52.06000000    40.82000000    -2.91500000
   H     51.89000000    40.42000000    -3.76500000
   H     52.15000000    41.75000000    -3.10500000
   O     50.90000000    40.87000000     1.92000000
   H     50.24000000    40.38000000     2.40000000
   H     51.47000000    41.24000000     2.60000000
   O     50.39000000    41.60000000    -0.80500000
   H     49.96000000    42.34000000    -0.36500000
   H     49.93000000    41.53000000    -1.64500000
   O     54.66000000    39.80000000    -1.96500000
   H     54.77000000    38.85000000    -2.03500000
   H     54.76000000    40.11000000    -2.86500000

Ca 1.00



