%chk=loop2.cluster48.chk
%nprocshared=20
%mem=10GB
%nosave
#b3lyp/svp scf=(tight,noincore,xqc) Test 
#IOP(5/87=12) Density=Current Pop=(MK,readradii) iop(6/33=2) iop(6/42=6)

loop2.cluster48 

   -2  1 
   C     47.42000000    48.01000000    22.32000000
   C     48.47000000    48.53000000    21.36000000
   O     48.46000000    48.07000000    20.22000000
   H     46.49800000    47.81000000    21.77500000
   H     47.77500000    47.09000000    22.78400000
   H     47.23100000    48.75600000    23.09100000
   N     49.36000000    49.43000000    21.79000000
   C     50.31000000    50.10000000    20.93000000
   C     49.46000000    51.05000000    20.10000000
   O     48.99000000    52.08000000    20.58000000
   C     51.40000000    50.74000000    21.80000000
   C     52.49000000    51.42000000    20.98000000
   O     53.37000000    52.06000000    21.59000000
   O     52.56000000    51.17000000    19.76000000
   H     49.16000000    49.86000000    22.68000000
   H     50.85000000    49.47000000    20.22000000
   H     51.79000000    49.89000000    22.35000000
   H     50.87000000    51.40000000    22.49000000
   N     49.33000000    50.71000000    18.82000000
   C     48.64000000    51.51000000    17.83000000
   C     47.84000000    50.65000000    16.86000000
   O     48.33000000    49.62000000    16.40000000
   C     49.62000000    52.47000000    17.16000000
   H     50.04000000    50.04000000    18.56000000
   H     47.92000000    52.15000000    18.34000000
   H     50.10000000    53.01000000    17.98000000
   H     50.31000000    51.82000000    16.63000000
   H     49.10000000    53.17000000    16.50000000
   N     46.62000000    51.01000000    16.46000000
   C     45.87000000    52.14000000    16.98000000
   C     45.24000000    51.95000000    18.35000000
   O     44.77000000    50.89000000    18.74000000
   C     44.75000000    52.57000000    16.04000000
   C     43.81000000    51.43000000    15.69000000
   O     44.28000000    50.42000000    15.12000000
   O     42.58000000    51.45000000    15.92000000
   H     46.16000000    50.38000000    15.82000000
   H     46.51000000    53.02000000    17.01000000
   H     45.23000000    53.10000000    15.22000000
   H     44.09000000    53.29000000    16.53000000
   N     45.30000000    53.05000000    19.12000000
   C     44.98000000    53.08000000    20.53000000
   C     44.60000000    54.45000000    21.06000000
   O     45.43000000    55.34000000    20.90000000
   H     45.77000000    53.86000000    18.75000000
   H     45.87000000    52.86000000    21.14000000
   H     44.23000000    52.31000000    20.69000000
   N     43.39000000    54.63000000    21.61000000
   C     42.31000000    53.68000000    21.79000000
   C     42.59000000    52.75000000    22.96000000
   O     43.31000000    52.97000000    23.92000000
   C     40.98000000    54.40000000    22.06000000
   C     40.78000000    55.44000000    20.97000000
   N     39.83000000    55.00000000    20.15000000
   O     41.34000000    56.54000000    20.97000000
   H     43.31000000    55.52000000    22.07000000
   H     42.15000000    53.11000000    20.88000000
   H     41.07000000    54.89000000    23.02000000
   H     40.17000000    53.69000000    22.19000000
   H     39.48000000    54.05000000    20.17000000
   H     39.41000000    55.57000000    19.43000000
   N     42.07000000    51.53000000    22.75000000
   C     42.06000000    50.49000000    23.75000000
   C     41.14000000    49.33000000    23.40000000
   O     40.70000000    48.57000000    24.26000000
   H     41.60000000    51.39000000    21.87000000
   H     41.61000000    50.83000000    24.69000000
   H     43.09000000    50.19000000    23.92000000
   N     40.75000000    49.22000000    22.13000000
   C     40.02000000    48.11000000    21.54000000
   C     40.79000000    47.49000000    20.39000000
   O     41.57000000    48.14000000    19.70000000
   C     38.59000000    48.42000000    21.09000000
   C     37.73000000    48.75000000    22.30000000
   O     38.57000000    49.36000000    20.04000000
   H     41.03000000    49.99000000    21.53000000
   H     39.97000000    47.33000000    22.30000000
   H     38.21000000    47.46000000    20.74000000
   H     38.86000000    48.93000000    19.23000000
   H     36.68000000    48.72000000    21.99000000
   H     37.75000000    48.01000000    23.10000000
   H     37.95000000    49.74000000    22.70000000
   N     40.50000000    46.21000000    20.11000000
   C     41.07000000    45.45000000    19.02000000
   C     40.05000000    45.08000000    17.96000000
   O     38.87000000    44.93000000    18.28000000
   C     41.81000000    44.27000000    19.66000000
   C     43.06000000    44.63000000    20.46000000
   C     40.83000000    43.40000000    20.45000000
   C     44.21000000    45.33000000    19.76000000
   H     39.94000000    45.71000000    20.78000000
   H     41.89000000    45.99000000    18.54000000
   H     42.11000000    43.67000000    18.81000000
   H     43.45000000    43.69000000    20.86000000
   H     42.79000000    45.16000000    21.38000000
   H     39.99000000    43.22000000    19.78000000
   H     41.31000000    42.45000000    20.69000000
   H     40.41000000    43.87000000    21.34000000
   H     43.75000000    46.28000000    19.48000000
   H     44.91000000    45.49000000    20.57000000
   H     44.64000000    44.82000000    18.90000000
   N     40.55000000    44.65000000    16.80000000
   C     39.70000000    44.42000000    15.65000000
   C     40.44000000    43.62000000    14.58000000
   O     41.64000000    43.81000000    14.40000000
   C     39.19000000    45.71000000    15.01000000
   C     40.19000000    46.85000000    14.91000000
   O     40.43000000    47.44000000    15.98000000
   O     40.71000000    47.28000000    13.85000000
   H     41.47000000    44.99000000    16.56000000
   H     38.89000000    43.76000000    15.97000000
   H     38.35000000    46.01000000    15.64000000
   H     38.78000000    45.51000000    14.02000000
   N     39.81000000    42.61000000    13.97000000
   C     40.44000000    41.63000000    13.10000000
   C     41.54000000    40.85000000    13.80000000
   O     41.32000000    40.34000000    14.89000000
   C     39.34000000    40.77000000    12.49000000
   C     39.88000000    39.78000000    11.48000000
   C     40.46000000    38.61000000    11.99000000
   C     39.80000000    39.98000000    10.10000000
   C     40.89000000    37.60000000    11.12000000
   C     40.42000000    39.08000000     9.23000000
   C     40.95000000    37.90000000     9.76000000
   H     38.81000000    42.50000000    14.04000000
   H     40.89000000    42.22000000    12.30000000
   H     38.52000000    41.40000000    12.17000000
   H     39.00000000    40.16000000    13.32000000
   H     40.55000000    38.45000000    13.05000000
   H     39.49000000    40.87000000     9.56000000
   H     41.22000000    36.64000000    11.50000000
   H     40.48000000    39.27000000     8.17000000
   H     41.27000000    37.10000000     9.10000000
   N     42.73000000    40.74000000    13.21000000
   C     43.87000000    40.08000000    13.82000000
   C     44.58000000    40.83000000    14.93000000
   O     45.39000000    40.21000000    15.63000000
   C     44.88000000    39.76000000    12.72000000
   C     44.10000000    40.08000000    11.44000000
   C     43.09000000    41.14000000    11.86000000
   H     43.51000000    39.16000000    14.26000000
   H     45.77000000    40.38000000    12.81000000
   H     45.20000000    38.72000000    12.71000000
   H     44.81000000    40.44000000    10.70000000
   H     43.61000000    39.17000000    11.11000000
   H     43.63000000    42.09000000    11.84000000
   H     42.30000000    41.27000000    11.11000000
   N     44.23000000    42.09000000    15.19000000
   C     45.07000000    42.89000000    16.07000000
   C     45.10000000    42.52000000    17.55000000
   O     46.08000000    42.94000000    18.17000000
   C     44.68000000    44.36000000    15.90000000
   C     45.17000000    44.87000000    14.55000000
   C     44.90000000    46.36000000    14.34000000
   O     44.11000000    46.98000000    15.10000000
   O     45.50000000    46.89000000    13.39000000
   H     43.47000000    42.60000000    14.77000000
   H     46.10000000    42.89000000    15.74000000
   H     45.25000000    44.94000000    16.62000000
   H     43.62000000    44.48000000    16.11000000
   H     44.59000000    44.29000000    13.83000000
   H     46.22000000    44.70000000    14.35000000
   N     44.19000000    41.68000000    18.04000000
   C     44.24000000    41.23000000    19.42000000
   H     44.36600000    42.09000000    20.07800000
   H     43.31200000    40.71600000    19.66900000
   H     45.08000000    40.54800000    19.55000000
   H     43.52000000    41.24000000    17.43000000
  Ca     42.24000000    49.02000000    14.82000000
   O     42.89000000    48.97000000    17.46000000
   H     43.58000000    49.51000000    17.84000000
   H     42.50000000    48.52000000    18.22000000
   O     41.77000000    50.64000000    12.85000000
   H     42.12000000    50.45000000    11.98000000
   H     40.90000000    51.00000000    12.68000000
   O     43.50000000    48.25000000    12.48000000
   H     44.27000000    47.74000000    12.72000000
   H     43.54000000    48.31000000    11.52000000

Ca 1.00



