%chk=loop1.cluster26.chk
%nprocshared=20
%mem=10GB
%nosave
#b3lyp/svp scf=(tight,noincore,xqc) Test 
#IOP(5/87=12) Density=Current Pop=(MK,readradii) iop(6/33=2) iop(6/42=6)

loop1.cluster26 

   0  1 
   C     40.17000000    38.26000000    13.40000000
   C     39.94000000    38.70000000    11.96000000
   O     40.66000000    39.55000000    11.44000000
   H     40.91100000    38.91000000    13.86400000
   H     39.23400000    38.32400000    13.95400000
   H     40.53100000    37.23100000    13.41300000
   N     38.91000000    38.16000000    11.31000000
   C     38.79000000    38.19000000     9.87000000
   C     37.82000000    39.29000000     9.43000000
   O     37.36000000    39.23000000     8.30000000
   C     38.22000000    36.82000000     9.51000000
   C     36.93000000    36.43000000    10.20000000
   O     35.83000000    36.66000000     9.66000000
   O     37.02000000    35.92000000    11.34000000
   H     38.25000000    37.59000000    11.83000000
   H     39.78000000    38.39000000     9.46000000
   H     39.06000000    36.14000000     9.65000000
   H     38.10000000    36.72000000     8.43000000
   N     37.57000000    40.31000000    10.26000000
   C     36.61000000    41.36000000    10.02000000
   C     37.16000000    42.74000000    10.35000000
   O     37.26000000    42.98000000    11.55000000
   C     35.42000000    40.96000000    10.90000000
   C     34.65000000    39.71000000    10.51000000
   C     33.95000000    39.71000000     9.15000000
   C     33.06000000    38.52000000     8.82000000
   N     32.67000000    38.48000000     7.41000000
   H     38.20000000    40.47000000    11.04000000
   H     36.34000000    41.46000000     8.97000000
   H     34.76000000    41.82000000    11.00000000
   H     35.70000000    40.87000000    11.95000000
   H     33.94000000    39.54000000    11.33000000
   H     35.34000000    38.87000000    10.56000000
   H     34.73000000    39.70000000     8.39000000
   H     33.48000000    40.68000000     9.01000000
   H     32.11000000    38.59000000     9.36000000
   H     33.50000000    37.56000000     9.09000000
   H     32.07000000    37.71000000     7.16000000
   H     32.19000000    39.37000000     7.29000000
   H     33.43000000    38.65000000     6.77000000
   N     37.52000000    43.65000000     9.44000000
   C     37.29000000    43.65000000     8.01000000
   C     35.83000000    43.80000000     7.59000000
   O     34.98000000    43.50000000     8.43000000
   C     37.96000000    42.54000000     7.22000000
   C     39.43000000    42.21000000     7.45000000
   O     40.06000000    42.66000000     8.43000000
   O     40.03000000    41.56000000     6.57000000
   H     37.81000000    44.46000000     9.98000000
   H     37.77000000    44.59000000     7.72000000
   H     37.71000000    42.64000000     6.16000000
   H     37.37000000    41.63000000     7.33000000
   N     35.50000000    44.34000000     6.42000000
   C     36.31000000    45.16000000     5.54000000
   C     35.92000000    45.15000000     4.07000000
   O     35.15000000    46.00000000     3.64000000
   H     34.51000000    44.43000000     6.20000000
   H     37.32000000    44.75000000     5.52000000
   H     36.35000000    46.18000000     5.90000000
   N     36.31000000    44.23000000     3.18000000
   C     37.41000000    43.30000000     3.30000000
   C     36.96000000    41.86000000     3.47000000
   O     35.85000000    41.44000000     3.15000000
   C     38.30000000    43.47000000     2.07000000
   C     39.76000000    43.09000000     2.31000000
   O     40.61000000    43.43000000     1.46000000
   O     40.15000000    42.51000000     3.34000000
   H     36.05000000    44.36000000     2.21000000
   H     38.04000000    43.54000000     4.16000000
   H     38.15000000    44.50000000     1.77000000
   H     37.77000000    42.82000000     1.37000000
   N     37.84000000    41.02000000     4.01000000
   C     37.46000000    39.70000000     4.48000000
   C     38.49000000    38.70000000     4.95000000
   O     38.12000000    37.53000000     4.98000000
   H     38.80000000    41.28000000     4.19000000
   H     36.92000000    39.15000000     3.70000000
   H     36.78000000    39.84000000     5.32000000
   N     39.78000000    39.00000000     5.14000000
   C     40.99000000    38.22000000     5.31000000
   C     41.88000000    38.64000000     6.47000000
   O     42.22000000    39.80000000     6.65000000
   C     41.82000000    38.14000000     4.03000000
   C     41.02000000    37.44000000     2.93000000
   O     42.83000000    37.19000000     4.26000000
   H     40.01000000    39.98000000     5.21000000
   H     40.70000000    37.19000000     5.51000000
   H     42.11000000    39.16000000     3.77000000
   H     43.43000000    37.16000000     3.51000000
   H     40.77000000    36.45000000     3.31000000
   H     40.17000000    38.11000000     2.80000000
   H     41.61000000    37.31000000     2.02000000
   N     42.33000000    37.61000000     7.18000000
   C     43.01000000    37.82000000     8.44000000
   C     44.43000000    38.33000000     8.22000000
   O     44.90000000    39.21000000     8.94000000
   C     42.92000000    36.62000000     9.38000000
   C     43.33000000    36.98000000    10.80000000
   C     43.83000000    35.49000000     8.89000000
   C     42.76000000    35.99000000    11.82000000
   H     42.11000000    36.66000000     6.90000000
   H     42.52000000    38.65000000     8.95000000
   H     41.88000000    36.30000000     9.42000000
   H     42.81000000    37.91000000    11.05000000
   H     44.41000000    36.95000000    10.85000000
   H     43.68000000    35.22000000     7.85000000
   H     44.89000000    35.74000000     9.00000000
   H     43.59000000    34.64000000     9.52000000
   H     41.67000000    35.91000000    11.80000000
   H     43.31000000    35.05000000    11.83000000
   H     42.94000000    36.47000000    12.78000000
   N     45.09000000    37.85000000     7.16000000
   C     46.22000000    38.49000000     6.51000000
   C     47.39000000    38.94000000     7.37000000
   O     48.35000000    38.18000000     7.41000000
   C     45.67000000    39.46000000     5.46000000
   C     46.74000000    40.17000000     4.66000000
   O     45.00000000    40.42000000     6.25000000
   H     44.57000000    37.20000000     6.59000000
   H     46.79000000    37.78000000     5.91000000
   H     45.08000000    38.96000000     4.69000000
   H     44.97000000    41.23000000     5.74000000
   H     47.36000000    39.48000000     4.08000000
   H     46.31000000    40.96000000     4.04000000
   H     47.47000000    40.64000000     5.32000000
   N     47.26000000    40.11000000     8.00000000
   C     48.34000000    40.94000000     8.50000000
   C     49.34000000    41.36000000     7.43000000
   O     49.62000000    40.53000000     6.57000000
   C     49.07000000    40.45000000     9.75000000
   C     48.12000000    40.15000000    10.90000000
   O     49.98000000    41.38000000    10.29000000
   H     46.45000000    40.62000000     7.70000000
   H     47.83000000    41.83000000     8.87000000
   H     49.54000000    39.51000000     9.46000000
   H     50.60000000    40.94000000    10.87000000
   H     47.67000000    39.17000000    10.81000000
   H     48.59000000    40.29000000    11.88000000
   H     47.35000000    40.92000000    10.79000000
   N     49.74000000    42.63000000     7.54000000
   C     50.66000000    43.31000000     6.64000000
   C     50.31000000    44.76000000     6.36000000
   O     51.00000000    45.44000000     5.60000000
   C     51.95000000    43.19000000     7.44000000
   C     52.85000000    42.08000000     6.91000000
   C     53.45000000    42.25000000     5.52000000
   C     54.62000000    41.30000000     5.31000000
   N     54.93000000    41.08000000     3.88000000
   H     49.39000000    43.09000000     8.37000000
   H     50.72000000    42.68000000     5.75000000
   H     51.81000000    43.18000000     8.53000000
   H     52.51000000    44.12000000     7.37000000
   H     52.39000000    41.09000000     6.98000000
   H     53.74000000    42.04000000     7.53000000
   H     53.74000000    43.29000000     5.35000000
   H     52.61000000    42.07000000     4.84000000
   H     54.51000000    40.38000000     5.88000000
   H     55.43000000    41.87000000     5.77000000
   H     54.05000000    40.93000000     3.41000000
   H     55.36000000    41.89000000     3.48000000
   H     55.50000000    40.25000000     3.79000000
   N     49.30000000    45.47000000     6.86000000
   C     48.28000000    45.38000000     7.89000000
   C     48.85000000    45.05000000     9.26000000
   O     48.47000000    44.09000000     9.91000000
   C     47.02000000    44.58000000     7.58000000
   C     46.35000000    44.84000000     6.23000000
   C     45.07000000    44.04000000     6.03000000
   O     44.03000000    44.47000000     6.57000000
   O     45.01000000    42.93000000     5.47000000
   H     49.28000000    46.39000000     6.43000000
   H     47.94000000    46.40000000     8.08000000
   H     46.21000000    44.64000000     8.30000000
   H     47.23000000    43.51000000     7.66000000
   H     47.06000000    44.72000000     5.42000000
   H     45.98000000    45.86000000     6.34000000
   N     49.91000000    45.80000000     9.58000000
   C     50.79000000    45.54000000    10.70000000
   H     51.67400000    46.17300000    10.62200000
   H     50.26800000    45.75900000    11.63100000
   H     51.09200000    44.49300000    10.69000000
   H     50.15000000    46.60000000     9.01000000
  Ca     42.54000000    42.34000000     6.93000000
   O     42.66000000    41.94000000     4.13000000
   H     43.18000000    41.94000000     3.33000000
   H     41.75000000    42.02000000     3.83000000
   O     44.75000000    42.04000000     8.76000000
   H     44.84000000    41.19000000     9.20000000
   H     44.88000000    42.68000000     9.46000000
   O     41.84000000    41.08000000     9.51000000
   H     41.18000000    41.77000000     9.52000000
   H     41.46000000    40.37000000    10.02000000
   O     40.90000000    44.05000000     5.36000000
   H     40.51000000    43.54000000     4.64000000
   H     40.52000000    44.93000000     5.25000000
   O     42.52000000    44.25000000     8.86000000
   H     41.82000000    44.55000000     9.44000000
   H     43.18000000    44.95000000     8.89000000

Ca 1.00



