%chk=loop4.cluster79.chk
%nprocshared=20
%mem=10GB
%nosave
#b3lyp/svp scf=(tight,noincore,xqc) Test 
#IOP(5/87=12) Density=Current Pop=(MK,readradii) iop(6/33=2) iop(6/42=6)

loop4.cluster79 

   -3  1 
   C     40.92000000    41.85000000    42.78000000
   C     40.89000000    41.23000000    44.17000000
   O     41.69000000    40.37000000    44.54000000
   H     41.74700000    42.55800000    42.71600000
   H     41.05500000    41.06600000    42.03500000
   H     39.98100000    42.37100000    42.59400000
   N     39.93000000    41.67000000    44.98000000
   C     39.87000000    41.37000000    46.40000000
   C     41.13000000    41.91000000    47.06000000
   O     41.86000000    41.17000000    47.71000000
   C     39.47000000    39.97000000    46.85000000
   C     40.18000000    38.81000000    46.17000000
   O     39.53000000    38.21000000    45.29000000
   O     41.29000000    38.40000000    46.55000000
   H     39.22000000    42.29000000    44.62000000
   H     39.06000000    41.98000000    46.80000000
   H     38.41000000    39.85000000    46.65000000
   H     39.49000000    39.97000000    47.94000000
   N     41.34000000    43.23000000    47.01000000
   C     42.41000000    44.10000000    47.48000000
   C     42.53000000    44.17000000    49.00000000
   O     42.85000000    45.21000000    49.57000000
   C     43.71000000    43.72000000    46.78000000
   C     44.79000000    44.74000000    47.14000000
   C     43.55000000    43.54000000    45.27000000
   C     46.16000000    44.72000000    46.46000000
   H     40.61000000    43.72000000    46.52000000
   H     42.33000000    45.14000000    47.19000000
   H     44.03000000    42.78000000    47.23000000
   H     44.92000000    44.63000000    48.22000000
   H     44.31000000    45.71000000    47.03000000
   H     44.36000000    44.05000000    44.75000000
   H     43.63000000    42.49000000    44.99000000
   H     42.59000000    43.96000000    44.99000000
   H     46.40000000    43.66000000    46.38000000
   H     46.05000000    45.12000000    45.45000000
   H     46.90000000    45.30000000    47.01000000
   N     42.32000000    43.07000000    49.72000000
   C     42.30000000    43.06000000    51.17000000
   C     43.53000000    42.44000000    51.81000000
   O     43.72000000    42.75000000    52.99000000
   C     41.03000000    42.40000000    51.70000000
   C     39.79000000    42.78000000    50.90000000
   O     39.29000000    43.91000000    51.11000000
   O     39.44000000    42.08000000    49.93000000
   H     42.19000000    42.18000000    49.27000000
   H     42.41000000    44.06000000    51.60000000
   H     40.80000000    42.68000000    52.73000000
   H     41.07000000    41.31000000    51.63000000
   N     44.37000000    41.61000000    51.18000000
   C     44.14000000    40.73000000    50.05000000
   C     44.96000000    39.45000000    50.13000000
   O     44.43000000    38.42000000    50.55000000
   H     45.15000000    41.39000000    51.77000000
   H     44.45000000    41.23000000    49.13000000
   H     43.11000000    40.46000000    49.82000000
   N     46.17000000    39.29000000    49.60000000
   C     47.24000000    40.25000000    49.46000000
   C     47.20000000    41.04000000    48.16000000
   O     46.65000000    40.66000000    47.13000000
   C     48.56000000    39.48000000    49.51000000
   C     49.77000000    40.37000000    49.30000000
   O     50.33000000    40.81000000    50.33000000
   O     50.31000000    40.56000000    48.19000000
   H     46.45000000    38.32000000    49.61000000
   H     47.25000000    40.94000000    50.31000000
   H     48.69000000    38.61000000    48.87000000
   H     48.63000000    39.02000000    50.50000000
   N     47.86000000    42.20000000    48.09000000
   C     48.33000000    43.09000000    49.13000000
   C     49.46000000    44.03000000    48.76000000
   O     49.15000000    45.22000000    48.74000000
   H     47.83000000    42.53000000    47.13000000
   H     48.55000000    42.57000000    50.06000000
   H     47.52000000    43.78000000    49.38000000
   N     50.59000000    43.57000000    48.21000000
   C     51.71000000    44.42000000    47.84000000
   C     51.53000000    45.14000000    46.51000000
   O     52.42000000    45.86000000    46.06000000
   C     53.04000000    43.69000000    47.97000000
   C     53.14000000    42.20000000    47.66000000
   C     52.87000000    41.93000000    46.19000000
   N     51.61000000    41.58000000    45.93000000
   O     53.68000000    41.95000000    45.27000000
   H     50.76000000    42.57000000    48.18000000
   H     51.77000000    45.26000000    48.53000000
   H     53.49000000    43.89000000    48.95000000
   H     53.70000000    44.21000000    47.28000000
   H     52.48000000    41.65000000    48.34000000
   H     54.15000000    41.86000000    47.89000000
   H     51.00000000    41.29000000    46.68000000
   H     51.44000000    41.30000000    44.98000000
   N     50.45000000    44.86000000    45.78000000
   C     50.27000000    45.57000000    44.53000000
   C     51.20000000    45.08000000    43.42000000
   O     51.20000000    43.87000000    43.23000000
   C     48.80000000    45.50000000    44.12000000
   C     48.23000000    44.15000000    43.70000000
   C     48.51000000    46.48000000    42.99000000
   H     49.82000000    44.16000000    46.13000000
   H     50.49000000    46.63000000    44.69000000
   H     48.27000000    45.90000000    44.99000000
   H     48.57000000    43.83000000    42.71000000
   H     48.56000000    43.35000000    44.35000000
   H     47.14000000    44.16000000    43.68000000
   H     49.24000000    46.44000000    42.18000000
   H     47.49000000    46.30000000    42.63000000
   H     48.57000000    47.49000000    43.39000000
   N     51.95000000    45.94000000    42.72000000
   C     52.81000000    45.68000000    41.58000000
   C     52.15000000    44.90000000    40.46000000
   O     51.96000000    45.44000000    39.37000000
   C     54.09000000    45.06000000    42.13000000
   C     55.08000000    44.82000000    40.99000000
   N     55.54000000    43.59000000    40.79000000
   O     55.48000000    45.76000000    40.32000000
   H     51.94000000    46.91000000    43.00000000
   H     53.05000000    46.67000000    41.18000000
   H     53.84000000    44.04000000    42.44000000
   H     54.61000000    45.48000000    42.98000000
   H     55.56000000    42.93000000    41.56000000
   H     56.22000000    43.58000000    40.04000000
   N     51.92000000    43.59000000    40.61000000
   C     51.69000000    42.58000000    39.60000000
   C     50.63000000    41.55000000    39.96000000
   O     50.04000000    41.70000000    41.03000000
   C     52.97000000    41.84000000    39.20000000
   C     53.87000000    41.17000000    40.20000000
   C     53.47000000    41.02000000    41.53000000
   C     55.13000000    40.77000000    39.73000000
   C     54.39000000    40.43000000    42.41000000
   C     55.98000000    40.11000000    40.63000000
   C     55.67000000    40.01000000    42.00000000
   O     56.52000000    39.33000000    42.81000000
   H     51.92000000    43.23000000    41.55000000
   H     51.33000000    43.01000000    38.67000000
   H     53.66000000    42.56000000    38.77000000
   H     52.72000000    41.15000000    38.39000000
   H     52.57000000    41.46000000    41.94000000
   H     55.37000000    40.92000000    38.69000000
   H     54.10000000    40.21000000    43.43000000
   H     56.90000000    39.76000000    40.19000000
   H     57.12000000    38.75000000    42.33000000
   N     50.36000000    40.53000000    39.15000000
   C     49.55000000    39.33000000    39.28000000
   C     48.10000000    39.55000000    39.70000000
   O     47.31000000    38.68000000    39.36000000
   C     50.16000000    38.34000000    40.26000000
   C     51.58000000    37.89000000    39.94000000
   C     51.72000000    36.90000000    38.79000000
   O     50.78000000    36.64000000    38.01000000
   O     52.81000000    36.31000000    38.63000000
   H     50.86000000    40.48000000    38.27000000
   H     49.46000000    38.90000000    38.28000000
   H     49.51000000    37.47000000    40.33000000
   H     50.18000000    38.84000000    41.22000000
   H     51.98000000    37.30000000    40.77000000
   H     52.18000000    38.77000000    39.71000000
   N     47.65000000    40.58000000    40.42000000
   C     46.26000000    40.88000000    40.66000000
   C     45.67000000    41.58000000    39.45000000
   O     44.52000000    41.39000000    39.06000000
   C     46.13000000    41.71000000    41.93000000
   C     46.44000000    40.92000000    43.21000000
   C     45.48000000    39.79000000    43.51000000
   O     45.79000000    38.88000000    44.31000000
   O     44.33000000    39.73000000    43.02000000
   H     48.37000000    41.07000000    40.93000000
   H     45.76000000    39.91000000    40.77000000
   H     45.15000000    42.14000000    42.10000000
   H     46.82000000    42.54000000    41.82000000
   H     46.61000000    41.48000000    44.13000000
   H     47.34000000    40.36000000    42.96000000
   N     46.49000000    42.48000000    38.89000000
   C     46.46000000    43.03000000    37.55000000
   H     46.56400000    44.11400000    37.60000000
   H     47.28100000    42.61300000    36.96700000
   H     45.51200000    42.77900000    37.07500000
   H     47.32000000    42.73000000    39.40000000
  Ca     43.39000000    38.04000000    45.05000000
   O     44.16000000    39.75000000    46.86000000
   H     45.00000000    40.20000000    46.92000000
   H     43.53000000    40.36000000    47.25000000
   O     44.35000000    36.47000000    43.22000000
   H     44.19000000    35.71000000    42.66000000
   H     45.24000000    36.74000000    42.99000000
   O     44.95000000    36.60000000    46.53000000
   H     44.71000000    36.53000000    47.46000000
   H     45.80000000    36.17000000    46.48000000
   O     41.28000000    37.76000000    43.40000000
   H     40.83000000    37.47000000    42.60000000
   H     40.57000000    38.01000000    43.99000000
   O     41.93000000    35.75000000    45.93000000
   H     41.22000000    36.10000000    46.48000000
   H     41.48000000    35.27000000    45.24000000

Ca 1.00



