%chk=loop2.cluster203.chk
%nprocshared=20
%mem=10GB
%nosave
#b3lyp/svp scf=(tight,noincore,xqc) Test 
#IOP(5/87=12) Density=Current Pop=(MK,readradii) iop(6/33=2) iop(6/42=6)

loop2.cluster203 

   -2  1 
   C     82.18000000    55.02000000     7.90000000
   C     83.49000000    55.11000000     7.12000000
   O     83.89000000    56.22000000     6.79000000
   H     81.38500000    54.68200000     7.23600000
   H     82.29300000    54.31100000     8.72000000
   H     81.92600000    56.00200000     8.30000000
   N     84.14000000    53.97000000     6.87000000
   C     85.37000000    53.97000000     6.11000000
   C     85.38000000    54.66000000     4.76000000
   O     84.50000000    54.48000000     3.91000000
   C     85.69000000    52.49000000     5.94000000
   C     87.04000000    52.13000000     5.33000000
   O     87.73000000    51.23000000     5.85000000
   O     87.53000000    52.94000000     4.51000000
   H     83.74000000    53.10000000     7.18000000
   H     86.17000000    54.38000000     6.74000000
   H     84.92000000    52.05000000     5.30000000
   H     85.61000000    52.08000000     6.94000000
   N     86.35000000    55.54000000     4.50000000
   C     86.42000000    56.38000000     3.32000000
   C     87.67000000    56.15000000     2.48000000
   O     88.00000000    56.97000000     1.62000000
   C     86.18000000    57.82000000     3.78000000
   H     87.11000000    55.60000000     5.15000000
   H     85.58000000    56.24000000     2.64000000
   H     85.24000000    58.03000000     4.27000000
   H     86.96000000    58.10000000     4.48000000
   H     86.20000000    58.45000000     2.89000000
   N     88.27000000    54.96000000     2.58000000
   C     89.31000000    54.55000000     1.66000000
   C     89.22000000    53.11000000     1.18000000
   O     89.83000000    52.78000000     0.17000000
   C     90.73000000    54.81000000     2.15000000
   C     90.93000000    54.13000000     3.50000000
   O     90.74000000    52.89000000     3.47000000
   O     91.17000000    54.81000000     4.52000000
   H     87.88000000    54.28000000     3.21000000
   H     89.37000000    55.12000000     0.73000000
   H     90.91000000    55.89000000     2.18000000
   H     91.41000000    54.43000000     1.39000000
   N     88.35000000    52.30000000     1.78000000
   C     88.09000000    50.92000000     1.41000000
   C     89.24000000    49.93000000     1.58000000
   O     89.18000000    48.91000000     0.90000000
   H     87.82000000    52.67000000     2.56000000
   H     87.67000000    51.02000000     0.41000000
   H     87.23000000    50.47000000     1.90000000
   N     90.30000000    50.23000000     2.34000000
   C     91.50000000    49.44000000     2.55000000
   C     91.37000000    48.21000000     3.43000000
   O     92.29000000    47.43000000     3.66000000
   C     92.57000000    50.40000000     3.06000000
   C     92.28000000    50.88000000     4.48000000
   N     93.18000000    51.74000000     4.96000000
   O     91.30000000    50.56000000     5.15000000
   H     90.20000000    51.13000000     2.77000000
   H     91.77000000    48.93000000     1.62000000
   H     92.66000000    51.26000000     2.40000000
   H     93.47000000    49.80000000     3.08000000
   H     93.93000000    52.06000000     4.37000000
   H     92.99000000    52.14000000     5.86000000
   N     90.19000000    48.08000000     4.05000000
   C     89.88000000    46.94000000     4.89000000
   C     90.01000000    47.12000000     6.39000000
   O     90.01000000    46.12000000     7.10000000
   H     89.41000000    48.65000000     3.78000000
   H     90.32000000    46.01000000     4.52000000
   H     88.83000000    46.69000000     4.76000000
   N     90.20000000    48.37000000     6.82000000
   C     90.58000000    48.69000000     8.18000000
   C     90.12000000    50.08000000     8.61000000
   O     90.14000000    50.98000000     7.78000000
   C     92.09000000    48.66000000     8.42000000
   C     92.61000000    47.24000000     8.66000000
   O     92.80000000    49.11000000     7.29000000
   H     90.24000000    49.09000000     6.11000000
   H     90.09000000    47.90000000     8.75000000
   H     92.37000000    49.20000000     9.33000000
   H     92.18000000    49.64000000     6.79000000
   H     92.48000000    46.63000000     7.77000000
   H     93.69000000    47.25000000     8.82000000
   H     92.11000000    46.80000000     9.52000000
   N     89.80000000    50.27000000     9.89000000
   C     89.74000000    51.58000000    10.50000000
   C     91.08000000    52.31000000    10.52000000
   O     92.06000000    51.85000000    11.09000000
   C     89.18000000    51.53000000    11.92000000
   C     87.94000000    50.65000000    12.01000000
   C     88.80000000    52.97000000    12.27000000
   C     87.48000000    50.29000000    13.42000000
   H     90.11000000    49.59000000    10.57000000
   H     89.11000000    52.15000000     9.80000000
   H     89.91000000    51.12000000    12.61000000
   H     88.15000000    49.72000000    11.48000000
   H     87.05000000    51.06000000    11.55000000
   H     88.11000000    53.43000000    11.56000000
   H     88.34000000    53.08000000    13.25000000
   H     89.67000000    53.63000000    12.32000000
   H     86.54000000    49.75000000    13.39000000
   H     88.17000000    49.57000000    13.87000000
   H     87.33000000    51.20000000    14.01000000
   N     91.09000000    53.49000000     9.90000000
   C     92.14000000    54.47000000    10.07000000
   C     91.79000000    55.48000000    11.16000000
   O     90.65000000    55.62000000    11.57000000
   C     92.50000000    55.08000000     8.72000000
   C     92.91000000    54.10000000     7.63000000
   O     92.08000000    53.31000000     7.13000000
   O     94.08000000    54.23000000     7.22000000
   H     90.21000000    53.75000000     9.48000000
   H     92.99000000    53.89000000    10.45000000
   H     93.30000000    55.82000000     8.78000000
   H     91.69000000    55.74000000     8.41000000
   N     92.76000000    56.30000000    11.57000000
   C     92.58000000    57.23000000    12.67000000
   C     91.59000000    58.33000000    12.31000000
   O     90.63000000    58.45000000    13.07000000
   C     93.94000000    57.76000000    13.11000000
   C     93.81000000    58.85000000    14.16000000
   C     94.45000000    60.07000000    13.95000000
   C     93.17000000    58.66000000    15.39000000
   C     94.41000000    61.05000000    14.96000000
   C     93.04000000    59.63000000    16.39000000
   C     93.72000000    60.83000000    16.16000000
   H     93.68000000    56.03000000    11.26000000
   H     92.12000000    56.65000000    13.47000000
   H     94.58000000    57.98000000    12.27000000
   H     94.52000000    56.93000000    13.52000000
   H     95.04000000    60.31000000    13.08000000
   H     92.73000000    57.71000000    15.66000000
   H     94.65000000    62.07000000    14.71000000
   H     92.60000000    59.42000000    17.35000000
   H     93.71000000    61.63000000    16.88000000
   N     91.60000000    58.94000000    11.12000000
   C     90.50000000    59.78000000    10.69000000
   C     89.12000000    59.15000000    10.76000000
   O     88.16000000    59.90000000    10.92000000
   C     91.00000000    60.32000000     9.35000000
   C     92.52000000    60.39000000     9.48000000
   C     92.72000000    59.06000000    10.21000000
   H     90.33000000    60.66000000    11.31000000
   H     90.71000000    59.72000000     8.49000000
   H     90.46000000    61.27000000     9.31000000
   H     92.99000000    60.31000000     8.49000000
   H     92.81000000    61.16000000    10.19000000
   H     92.63000000    58.20000000     9.54000000
   H     93.62000000    59.04000000    10.81000000
   N     88.93000000    57.84000000    10.59000000
   C     87.64000000    57.19000000    10.55000000
   C     87.17000000    56.72000000    11.92000000
   O     86.03000000    56.76000000    12.37000000
   C     87.75000000    55.95000000     9.66000000
   C     88.18000000    56.31000000     8.24000000
   C     88.63000000    55.09000000     7.46000000
   O     88.60000000    55.19000000     6.21000000
   O     88.84000000    53.96000000     7.95000000
   H     89.80000000    57.33000000    10.59000000
   H     86.91000000    57.83000000    10.05000000
   H     86.79000000    55.44000000     9.68000000
   H     88.49000000    55.29000000    10.11000000
   H     89.09000000    56.91000000     8.32000000
   H     87.39000000    56.86000000     7.73000000
   N     88.16000000    56.38000000    12.75000000
   C     88.12000000    56.24000000    14.19000000
   H     87.22800000    56.73200000    14.57800000
   H     88.09300000    55.18200000    14.45200000
   H     89.00700000    56.70100000    14.62500000
   H     89.09000000    56.28000000    12.35000000
  Ca     89.89000000    52.85000000     5.94000000

Ca 1.00



