%chk=loop3.cluster2.chk
%nprocshared=20
%mem=10GB
%nosave
#b3lyp/svp scf=(tight,noincore,xqc) Test 
#IOP(5/87=12) Density=Current Pop=(MK,readradii) iop(6/33=2) iop(6/42=6)

loop3.cluster2 

   0  1 
   C     47.05000000    52.53000000    32.59000000
   C     48.41000000    52.50000000    33.28000000
   O     48.75000000    51.44000000    33.81000000
   H     46.35500000    53.12400000    33.18400000
   H     47.15400000    52.97500000    31.60000000
   H     46.66800000    51.51400000    32.49400000
   N     49.13000000    53.62000000    33.30000000
   C     50.45000000    53.67000000    33.91000000
   C     50.35000000    54.11000000    35.37000000
   O     50.71000000    55.20000000    35.79000000
   C     51.38000000    54.42000000    32.97000000
   C     52.80000000    54.55000000    33.51000000
   O     53.45000000    53.50000000    33.71000000
   O     53.24000000    55.71000000    33.66000000
   H     48.88000000    54.40000000    32.72000000
   H     50.89000000    52.69000000    34.05000000
   H     50.98000000    55.43000000    32.90000000
   H     51.49000000    53.85000000    32.05000000
   N     49.82000000    53.27000000    36.27000000
   C     49.62000000    53.52000000    37.68000000
   C     50.90000000    53.38000000    38.48000000
   O     50.87000000    53.58000000    39.69000000
   C     48.51000000    52.56000000    38.12000000
   C     47.16000000    52.77000000    37.44000000
   C     46.19000000    51.72000000    37.98000000
   C     44.85000000    51.86000000    37.27000000
   N     43.84000000    50.89000000    37.72000000
   H     49.61000000    52.37000000    35.86000000
   H     49.37000000    54.57000000    37.79000000
   H     48.49000000    52.63000000    39.20000000
   H     49.00000000    51.61000000    37.92000000
   H     47.18000000    52.58000000    36.37000000
   H     46.82000000    53.78000000    37.68000000
   H     46.15000000    51.93000000    39.05000000
   H     46.61000000    50.72000000    38.03000000
   H     44.95000000    51.91000000    36.19000000
   H     44.40000000    52.82000000    37.53000000
   H     43.83000000    50.79000000    38.72000000
   H     42.89000000    51.10000000    37.44000000
   H     44.03000000    50.01000000    37.26000000
   N     52.03000000    52.97000000    37.89000000
   C     53.37000000    53.01000000    38.45000000
   C     54.14000000    54.29000000    38.15000000
   O     55.23000000    54.59000000    38.61000000
   C     54.06000000    51.75000000    37.95000000
   C     54.25000000    51.60000000    36.44000000
   O     53.24000000    51.36000000    35.75000000
   O     55.36000000    51.72000000    35.89000000
   H     51.93000000    52.64000000    36.94000000
   H     53.16000000    52.92000000    39.52000000
   H     53.45000000    50.94000000    38.34000000
   H     55.02000000    51.64000000    38.44000000
   N     53.52000000    55.20000000    37.40000000
   C     53.89000000    56.60000000    37.37000000
   C     55.20000000    56.90000000    36.65000000
   O     55.93000000    57.79000000    37.06000000
   H     52.62000000    54.92000000    37.05000000
   H     53.82000000    57.05000000    38.36000000
   H     53.14000000    57.10000000    36.75000000
   N     55.60000000    56.06000000    35.69000000
   C     56.93000000    55.95000000    35.12000000
   C     56.99000000    56.26000000    33.63000000
   O     58.07000000    56.56000000    33.13000000
   C     57.54000000    54.59000000    35.45000000
   C     57.71000000    53.66000000    34.26000000
   N     58.97000000    53.41000000    33.90000000
   O     56.72000000    53.11000000    33.77000000
   H     54.95000000    55.36000000    35.36000000
   H     57.57000000    56.66000000    35.65000000
   H     56.89000000    54.09000000    36.17000000
   H     58.41000000    54.70000000    36.09000000
   H     59.81000000    53.80000000    34.31000000
   H     59.09000000    52.86000000    33.07000000
   N     55.83000000    56.36000000    32.98000000
   C     55.74000000    57.06000000    31.71000000
   C     55.76000000    56.16000000    30.48000000
   O     55.80000000    56.70000000    29.38000000
   H     54.99000000    56.36000000    33.53000000
   H     56.64000000    57.68000000    31.74000000
   H     54.89000000    57.72000000    31.60000000
   N     55.68000000    54.84000000    30.65000000
   C     55.78000000    53.86000000    29.59000000
   C     54.85000000    52.67000000    29.76000000
   O     54.52000000    52.25000000    30.87000000
   C     57.20000000    53.35000000    29.38000000
   C     58.29000000    54.36000000    29.12000000
   C     58.57000000    54.67000000    27.79000000
   C     59.06000000    54.90000000    30.16000000
   C     59.65000000    55.52000000    27.49000000
   C     60.15000000    55.74000000    29.90000000
   C     60.47000000    55.98000000    28.54000000
   O     61.57000000    56.74000000    28.30000000
   H     55.76000000    54.52000000    31.61000000
   H     55.42000000    54.33000000    28.67000000
   H     57.10000000    52.75000000    28.47000000
   H     57.48000000    52.66000000    30.18000000
   H     58.04000000    54.36000000    26.90000000
   H     58.70000000    54.66000000    31.15000000
   H     59.87000000    55.67000000    26.45000000
   H     60.74000000    56.16000000    30.70000000
   H     61.99000000    56.97000000    29.13000000
   N     54.49000000    52.03000000    28.65000000
   C     53.75000000    50.79000000    28.51000000
   C     54.55000000    50.02000000    27.46000000
   O     54.69000000    50.32000000    26.28000000
   C     52.30000000    50.97000000    28.08000000
   C     51.55000000    51.97000000    28.96000000
   C     51.55000000    49.65000000    28.29000000
   C     50.13000000    52.36000000    28.54000000
   H     54.91000000    52.44000000    27.83000000
   H     53.81000000    50.41000000    29.53000000
   H     52.22000000    51.17000000    27.02000000
   H     52.08000000    52.92000000    29.04000000
   H     51.39000000    51.49000000    29.93000000
   H     51.99000000    48.83000000    27.70000000
   H     51.63000000    49.45000000    29.35000000
   H     50.51000000    49.79000000    27.99000000
   H     50.17000000    52.47000000    27.46000000
   H     49.43000000    51.56000000    28.80000000
   H     49.79000000    53.30000000    28.97000000
   N     55.00000000    48.84000000    27.91000000
   C     55.64000000    47.84000000    27.08000000
   C     54.72000000    46.85000000    26.38000000
   O     53.53000000    46.87000000    26.72000000
   C     56.74000000    47.13000000    27.87000000
   O     56.15000000    46.58000000    29.02000000
   H     54.72000000    48.56000000    28.84000000
   H     56.13000000    48.33000000    26.24000000
   H     57.57000000    47.83000000    27.98000000
   H     57.09000000    46.35000000    27.19000000
   H     55.92000000    47.35000000    29.55000000
   N     55.17000000    46.13000000    25.35000000
   C     54.40000000    45.06000000    24.74000000
   C     53.80000000    44.09000000    25.74000000
   O     52.64000000    43.69000000    25.69000000
   C     55.31000000    44.36000000    23.74000000
   H     56.07000000    46.38000000    24.96000000
   H     53.59000000    45.64000000    24.30000000
   H     55.87000000    43.64000000    24.34000000
   H     54.71000000    43.83000000    23.00000000
   H     56.09000000    45.00000000    23.31000000
   N     54.58000000    43.73000000    26.76000000
   C     54.12000000    42.83000000    27.81000000
   C     53.04000000    43.44000000    28.68000000
   O     52.09000000    42.79000000    29.11000000
   C     55.36000000    42.44000000    28.62000000
   H     55.49000000    44.14000000    26.86000000
   H     53.74000000    41.88000000    27.42000000
   H     55.68000000    43.33000000    29.17000000
   H     55.03000000    41.80000000    29.44000000
   H     56.09000000    41.88000000    28.04000000
   N     53.12000000    44.73000000    29.04000000
   C     52.17000000    45.45000000    29.85000000
   C     50.93000000    45.77000000    29.02000000
   O     49.83000000    45.48000000    29.50000000
   C     52.69000000    46.80000000    30.34000000
   C     53.79000000    46.71000000    31.39000000
   C     54.43000000    48.07000000    31.62000000
   O     55.31000000    48.36000000    30.77000000
   O     53.97000000    48.79000000    32.53000000
   H     53.86000000    45.26000000    28.60000000
   H     51.87000000    44.89000000    30.73000000
   H     51.80000000    47.26000000    30.78000000
   H     52.95000000    47.39000000    29.45000000
   H     54.44000000    46.01000000    30.88000000
   H     53.36000000    46.33000000    32.32000000
   N     51.07000000    46.09000000    27.73000000
   C     49.91000000    46.13000000    26.87000000
   H     49.12300000    46.71200000    27.35000000
   H     50.17700000    46.59400000    25.92100000
   H     49.55400000    45.11500000    26.69200000
   H     52.00000000    46.39000000    27.49000000
  Ca     54.59000000    51.27000000    33.30000000
   O     55.91000000    49.26000000    34.63000000
   H     55.65000000    48.53000000    35.19000000
   H     56.58000000    48.89000000    34.05000000
   O     56.66000000    50.38000000    31.79000000
   H     56.25000000    49.73000000    31.21000000
   H     57.55000000    50.48000000    31.45000000
   O     51.63000000    50.85000000    32.80000000
   H     51.11000000    50.35000000    33.43000000
   H     51.42000000    50.46000000    31.96000000

Ca 1.00



