%chk=loop2.cluster215.chk
%nprocshared=20
%mem=10GB
%nosave
#b3lyp/svp scf=(tight,noincore,xqc) Test 
#IOP(5/87=12) Density=Current Pop=(MK,readradii) iop(6/33=2) iop(6/42=6)

loop2.cluster215 

   -2  1 
   C     57.56000000    61.20000000    12.99000000
   C     58.59000000    61.46000000    11.89000000
   O     59.45000000    62.33000000    11.99000000
   H     56.62400000    60.86900000    12.54000000
   H     57.93300000    60.42700000    13.66200000
   H     57.38800000    62.11800000    13.55200000
   N     58.41000000    60.76000000    10.77000000
   C     59.24000000    60.74000000     9.58000000
   C     59.51000000    62.11000000     8.97000000
   O     58.63000000    62.95000000     8.85000000
   C     58.66000000    59.84000000     8.50000000
   C     59.54000000    59.68000000     7.27000000
   O     60.77000000    59.89000000     7.32000000
   O     59.01000000    59.07000000     6.32000000
   H     57.55000000    60.24000000    10.67000000
   H     60.16000000    60.19000000     9.78000000
   H     57.73000000    60.28000000     8.15000000
   H     58.46000000    58.86000000     8.94000000
   N     60.74000000    62.26000000     8.47000000
   C     61.16000000    63.41000000     7.68000000
   C     61.87000000    63.20000000     6.35000000
   O     62.46000000    64.11000000     5.77000000
   C     61.95000000    64.37000000     8.56000000
   H     61.43000000    61.55000000     8.64000000
   H     60.23000000    63.89000000     7.37000000
   H     61.22000000    64.82000000     9.24000000
   H     62.72000000    63.85000000     9.13000000
   H     62.39000000    65.24000000     8.09000000
   N     61.86000000    61.99000000     5.79000000
   C     62.60000000    61.61000000     4.60000000
   C     61.89000000    60.60000000     3.71000000
   O     62.21000000    60.53000000     2.52000000
   C     63.99000000    61.11000000     4.99000000
   C     63.83000000    60.00000000     6.02000000
   O     63.16000000    58.96000000     5.84000000
   O     64.33000000    60.18000000     7.15000000
   H     61.45000000    61.27000000     6.36000000
   H     62.82000000    62.43000000     3.92000000
   H     64.61000000    61.87000000     5.45000000
   H     64.55000000    60.63000000     4.19000000
   N     61.06000000    59.71000000     4.24000000
   C     60.40000000    58.58000000     3.60000000
   C     61.14000000    57.27000000     3.42000000
   O     60.76000000    56.47000000     2.58000000
   H     60.82000000    59.84000000     5.21000000
   H     60.11000000    58.84000000     2.58000000
   H     59.49000000    58.46000000     4.19000000
   N     62.13000000    56.94000000     4.26000000
   C     62.90000000    55.72000000     4.06000000
   C     62.30000000    54.45000000     4.65000000
   O     62.85000000    53.37000000     4.44000000
   C     64.32000000    55.93000000     4.57000000
   C     64.43000000    56.33000000     6.03000000
   N     65.58000000    56.88000000     6.43000000
   O     63.56000000    56.23000000     6.89000000
   H     62.51000000    57.69000000     4.82000000
   H     63.02000000    55.60000000     2.99000000
   H     64.91000000    56.54000000     3.89000000
   H     64.83000000    54.98000000     4.37000000
   H     66.40000000    56.92000000     5.85000000
   H     65.73000000    57.04000000     7.42000000
   N     61.14000000    54.48000000     5.31000000
   C     60.63000000    53.29000000     5.96000000
   C     61.11000000    52.96000000     7.36000000
   O     60.74000000    51.90000000     7.88000000
   H     60.66000000    55.36000000     5.46000000
   H     60.79000000    52.37000000     5.38000000
   H     59.55000000    53.44000000     6.03000000
   N     61.80000000    53.83000000     8.10000000
   C     62.40000000    53.67000000     9.41000000
   C     62.42000000    54.97000000    10.19000000
   O     62.63000000    56.03000000     9.60000000
   C     63.84000000    53.17000000     9.29000000
   C     63.88000000    51.67000000     8.99000000
   O     64.63000000    53.87000000     8.36000000
   H     62.20000000    54.58000000     7.54000000
   H     61.82000000    52.97000000    10.01000000
   H     64.29000000    53.32000000    10.26000000
   H     64.41000000    54.80000000     8.23000000
   H     64.89000000    51.25000000     9.07000000
   H     63.20000000    51.05000000     9.56000000
   H     63.51000000    51.59000000     7.97000000
   N     62.41000000    54.88000000    11.53000000
   C     62.64000000    56.03000000    12.37000000
   C     64.12000000    56.34000000    12.28000000
   O     64.86000000    55.36000000    12.39000000
   C     62.11000000    55.90000000    13.80000000
   C     60.64000000    55.51000000    13.90000000
   C     62.30000000    57.25000000    14.46000000
   C     60.25000000    54.89000000    15.24000000
   H     62.58000000    53.95000000    11.88000000
   H     62.11000000    56.86000000    11.89000000
   H     62.79000000    55.20000000    14.30000000
   H     60.43000000    54.76000000    13.14000000
   H     59.99000000    56.38000000    13.83000000
   H     63.36000000    57.51000000    14.39000000
   H     61.68000000    57.94000000    13.89000000
   H     62.08000000    57.18000000    15.53000000
   H     61.03000000    54.21000000    15.62000000
   H     60.02000000    55.74000000    15.88000000
   H     59.36000000    54.27000000    15.14000000
   N     64.57000000    57.50000000    11.78000000
   C     65.95000000    57.91000000    11.90000000
   C     66.21000000    58.39000000    13.32000000
   O     65.31000000    58.77000000    14.06000000
   C     66.33000000    58.98000000    10.88000000
   C     66.23000000    58.27000000     9.54000000
   O     65.16000000    57.83000000     9.06000000
   O     67.31000000    58.09000000     8.92000000
   H     63.88000000    58.23000000    11.72000000
   H     66.51000000    57.00000000    11.72000000
   H     67.35000000    59.32000000    11.05000000
   H     65.67000000    59.85000000    10.91000000
   N     67.48000000    58.45000000    13.72000000
   C     67.79000000    58.96000000    15.05000000
   C     67.45000000    60.42000000    15.31000000
   O     66.85000000    60.72000000    16.34000000
   C     69.24000000    58.65000000    15.39000000
   C     69.81000000    59.02000000    16.74000000
   C     71.08000000    59.62000000    16.79000000
   C     69.15000000    58.64000000    17.91000000
   C     71.57000000    60.06000000    18.02000000
   C     69.68000000    59.00000000    19.15000000
   C     70.89000000    59.70000000    19.19000000
   H     68.22000000    57.98000000    13.21000000
   H     67.22000000    58.40000000    15.79000000
   H     69.82000000    58.82000000    14.48000000
   H     69.31000000    57.56000000    15.41000000
   H     71.66000000    59.77000000    15.89000000
   H     68.19000000    58.14000000    17.85000000
   H     72.46000000    60.68000000    17.99000000
   H     69.27000000    58.66000000    20.09000000
   H     71.27000000    60.03000000    20.14000000
   N     67.65000000    61.42000000    14.43000000
   C     67.12000000    62.76000000    14.51000000
   C     65.61000000    62.89000000    14.63000000
   O     65.06000000    63.68000000    15.41000000
   C     67.50000000    63.42000000    13.18000000
   C     68.87000000    62.81000000    12.89000000
   C     68.46000000    61.38000000    13.23000000
   H     67.62000000    63.24000000    15.35000000
   H     66.76000000    63.21000000    12.41000000
   H     67.59000000    64.49000000    13.35000000
   H     69.26000000    63.01000000    11.89000000
   H     69.58000000    63.22000000    13.61000000
   H     67.88000000    61.07000000    12.36000000
   H     69.33000000    60.78000000    13.44000000
   N     64.88000000    61.94000000    14.04000000
   C     63.47000000    61.74000000    14.32000000
   C     63.18000000    61.13000000    15.68000000
   O     62.35000000    61.72000000    16.37000000
   C     62.84000000    60.92000000    13.20000000
   C     63.30000000    61.26000000    11.79000000
   C     62.73000000    60.28000000    10.77000000
   O     62.75000000    60.59000000     9.56000000
   O     62.40000000    59.10000000    11.02000000
   H     65.17000000    61.43000000    13.23000000
   H     63.00000000    62.72000000    14.25000000
   H     61.76000000    61.07000000    13.24000000
   H     63.03000000    59.86000000    13.35000000
   H     64.39000000    61.21000000    11.71000000
   H     63.06000000    62.27000000    11.45000000
   N     63.91000000    60.12000000    16.17000000
   C     63.71000000    59.68000000    17.53000000
   H     62.66100000    59.42400000    17.67800000
   H     64.32800000    58.80300000    17.72300000
   H     63.98800000    60.48000000    18.21600000
   H     64.66000000    59.81000000    15.57000000
  Ca     62.74000000    58.30000000     8.29000000
   O     60.47000000    57.79000000     9.97000000
   H     61.01000000    58.31000000    10.55000000
   H     59.62000000    57.73000000    10.41000000
   O     60.73000000    57.02000000     7.01000000
   H     59.90000000    56.72000000     7.38000000
   H     60.48000000    57.72000000     6.41000000

Ca 1.00



