%chk=loop2.cluster121.chk
%nprocshared=20
%mem=10GB
%nosave
#b3lyp/svp scf=(tight,noincore,xqc) Test 
#IOP(5/87=12) Density=Current Pop=(MK,readradii) iop(6/33=2) iop(6/42=6)

loop2.cluster121 

   -2  1 
   C     63.57000000    62.69000000    13.52000000
   C     62.40000000    63.00000000    14.44000000
   O     62.52000000    63.60000000    15.51000000
   H     64.44600000    62.44000000    14.11900000
   H     63.31600000    61.84500000    12.88000000
   H     63.78900000    63.56200000    12.90300000
   N     61.16000000    62.61000000    14.15000000
   C     59.98000000    62.90000000    14.94000000
   C     60.02000000    62.51000000    16.41000000
   O     60.37000000    61.37000000    16.70000000
   C     58.75000000    62.19000000    14.38000000
   C     57.43000000    62.77000000    14.86000000
   O     56.34000000    62.27000000    14.52000000
   O     57.40000000    63.71000000    15.69000000
   H     60.94000000    62.04000000    13.34000000
   H     59.78000000    63.97000000    14.92000000
   H     58.77000000    61.13000000    14.62000000
   H     58.76000000    62.27000000    13.29000000
   N     59.64000000    63.36000000    17.37000000
   C     59.49000000    62.98000000    18.76000000
   C     58.24000000    62.16000000    19.06000000
   O     58.25000000    61.40000000    20.02000000
   C     59.62000000    64.29000000    19.53000000
   H     59.34000000    64.29000000    17.12000000
   H     60.31000000    62.32000000    19.04000000
   H     60.41000000    64.93000000    19.14000000
   H     58.72000000    64.87000000    19.37000000
   H     59.74000000    64.06000000    20.59000000
   N     57.18000000    62.36000000    18.27000000
   C     55.94000000    61.65000000    18.52000000
   C     55.81000000    60.39000000    17.68000000
   O     54.83000000    59.66000000    17.84000000
   C     54.78000000    62.58000000    18.20000000
   C     54.93000000    63.95000000    18.84000000
   O     55.62000000    64.81000000    18.24000000
   O     54.40000000    64.05000000    19.96000000
   H     57.26000000    63.02000000    17.51000000
   H     55.85000000    61.34000000    19.56000000
   H     53.84000000    62.10000000    18.47000000
   H     54.79000000    62.75000000    17.12000000
   N     56.68000000    60.03000000    16.73000000
   C     56.50000000    58.96000000    15.76000000
   C     55.16000000    58.99000000    15.03000000
   O     54.56000000    57.93000000    14.85000000
   H     57.55000000    60.53000000    16.73000000
   H     56.53000000    58.06000000    16.37000000
   H     57.32000000    59.03000000    15.04000000
   N     54.67000000    60.18000000    14.70000000
   C     53.36000000    60.43000000    14.13000000
   C     53.32000000    61.30000000    12.89000000
   O     52.27000000    61.28000000    12.26000000
   C     52.47000000    60.97000000    15.25000000
   C     51.01000000    60.98000000    14.82000000
   N     50.40000000    59.82000000    14.57000000
   O     50.42000000    62.03000000    14.60000000
   H     55.31000000    60.95000000    14.87000000
   H     52.89000000    59.52000000    13.76000000
   H     52.73000000    61.97000000    15.60000000
   H     52.57000000    60.32000000    16.12000000
   H     50.90000000    59.01000000    14.93000000
   H     49.43000000    59.85000000    14.30000000
   N     54.39000000    62.01000000    12.51000000
   C     54.45000000    62.49000000    11.14000000
   C     54.51000000    64.01000000    10.98000000
   O     54.58000000    64.47000000     9.85000000
   H     55.23000000    62.03000000    13.05000000
   H     53.59000000    62.18000000    10.55000000
   H     55.31000000    62.00000000    10.70000000
   N     54.56000000    64.83000000    12.03000000
   C     54.64000000    66.27000000    11.87000000
   C     55.99000000    66.77000000    12.35000000
   O     56.29000000    66.54000000    13.52000000
   C     53.58000000    67.02000000    12.68000000
   C     53.56000000    68.50000000    12.29000000
   O     52.27000000    66.55000000    12.47000000
   H     54.56000000    64.37000000    12.93000000
   H     54.56000000    66.50000000    10.80000000
   H     53.83000000    66.88000000    13.73000000
   H     52.08000000    65.81000000    13.05000000
   H     52.93000000    69.02000000    13.00000000
   H     54.54000000    68.97000000    12.35000000
   H     53.11000000    68.56000000    11.30000000
   N     56.69000000    67.59000000    11.56000000
   C     57.91000000    68.21000000    12.03000000
   C     57.66000000    69.52000000    12.76000000
   O     57.08000000    70.44000000    12.18000000
   C     58.82000000    68.18000000    10.81000000
   C     59.03000000    66.80000000    10.19000000
   C     60.15000000    68.86000000    11.13000000
   C     59.78000000    65.89000000    11.15000000
   H     56.39000000    67.77000000    10.61000000
   H     58.33000000    67.48000000    12.72000000
   H     58.38000000    68.74000000     9.98000000
   H     59.47000000    66.92000000     9.20000000
   H     58.07000000    66.32000000     9.99000000
   H     60.50000000    68.59000000    12.13000000
   H     60.80000000    68.61000000    10.29000000
   H     59.92000000    69.92000000    11.24000000
   H     59.21000000    65.47000000    11.98000000
   H     60.20000000    65.04000000    10.60000000
   H     60.71000000    66.36000000    11.46000000
   N     58.06000000    69.70000000    14.02000000
   C     58.27000000    70.94000000    14.75000000
   C     59.69000000    71.44000000    14.55000000
   O     60.52000000    70.77000000    13.93000000
   C     57.89000000    70.65000000    16.20000000
   C     56.56000000    69.95000000    16.39000000
   O     56.61000000    68.75000000    16.74000000
   O     55.46000000    70.53000000    16.24000000
   H     58.54000000    68.94000000    14.49000000
   H     57.53000000    71.65000000    14.40000000
   H     57.80000000    71.62000000    16.68000000
   H     58.71000000    70.05000000    16.61000000
   N     60.01000000    72.58000000    15.17000000
   C     61.29000000    73.20000000    14.91000000
   C     62.45000000    72.38000000    15.44000000
   O     63.46000000    72.25000000    14.76000000
   C     61.40000000    74.67000000    15.31000000
   C     62.68000000    75.35000000    14.89000000
   C     63.03000000    75.39000000    13.54000000
   C     63.43000000    76.18000000    15.75000000
   C     64.17000000    76.10000000    13.12000000
   C     64.58000000    76.87000000    15.37000000
   C     64.96000000    76.82000000    14.02000000
   H     59.36000000    73.10000000    15.74000000
   H     61.40000000    73.23000000    13.83000000
   H     61.21000000    74.82000000    16.38000000
   H     60.59000000    75.23000000    14.84000000
   H     62.42000000    74.87000000    12.82000000
   H     63.07000000    76.24000000    16.76000000
   H     64.47000000    75.98000000    12.09000000
   H     65.09000000    77.53000000    16.06000000
   H     65.85000000    77.37000000    13.76000000
   N     62.39000000    71.72000000    16.61000000
   C     63.48000000    70.91000000    17.13000000
   C     63.90000000    69.81000000    16.18000000
   O     65.06000000    69.45000000    15.98000000
   C     63.02000000    70.34000000    18.47000000
   C     62.08000000    71.45000000    18.94000000
   C     61.38000000    71.82000000    17.64000000
   H     64.20000000    71.70000000    17.33000000
   H     62.46000000    69.41000000    18.37000000
   H     63.88000000    70.16000000    19.11000000
   H     61.40000000    71.10000000    19.71000000
   H     62.68000000    72.31000000    19.25000000
   H     60.51000000    71.17000000    17.57000000
   H     61.09000000    72.87000000    17.67000000
   N     62.89000000    69.19000000    15.56000000
   C     62.95000000    67.99000000    14.75000000
   C     63.52000000    68.43000000    13.41000000
   O     64.43000000    67.78000000    12.90000000
   C     61.56000000    67.35000000    14.69000000
   C     61.04000000    66.90000000    16.04000000
   C     59.56000000    66.53000000    16.11000000
   O     58.86000000    66.42000000    15.08000000
   O     58.93000000    66.46000000    17.19000000
   H     61.97000000    69.57000000    15.69000000
   H     63.64000000    67.27000000    15.17000000
   H     61.72000000    66.44000000    14.11000000
   H     60.86000000    68.03000000    14.20000000
   H     61.21000000    67.77000000    16.68000000
   H     61.58000000    66.05000000    16.46000000
   N     63.05000000    69.57000000    12.89000000
   C     63.53000000    70.19000000    11.67000000
   H     64.55200000    69.86400000    11.47500000
   H     62.89100000    69.89700000    10.83700000
   H     63.51000000    71.27400000    11.78100000
   H     62.26000000    70.02000000    13.34000000
  Ca     56.54000000    66.06000000    16.22000000
   O     54.13000000    67.29000000    16.34000000
   H     53.40000000    66.69000000    16.45000000
   H     53.73000000    68.15000000    16.21000000
   O     54.62000000    64.58000000    15.10000000
   H     55.00000000    63.70000000    15.03000000
   H     53.80000000    64.44000000    15.57000000

Ca 1.00



