%chk=loop1.cluster38.chk
%nprocshared=20
%mem=10GB
%nosave
#b3lyp/svp scf=(tight,noincore,xqc) Test 
#IOP(5/87=12) Density=Current Pop=(MK,readradii) iop(6/33=2) iop(6/42=6)

loop1.cluster38 

   0  1 
   C     41.30000000    39.20000000    53.57000000
   C     40.32000000    39.05000000    52.42000000
   O     39.18000000    39.50000000    52.52000000
   H     42.17100000    39.76200000    53.23300000
   H     40.82000000    39.73300000    54.39000000
   H     41.61400000    38.21400000    53.91100000
   N     40.71000000    38.42000000    51.31000000
   C     39.98000000    38.46000000    50.05000000
   C     39.85000000    37.08000000    49.42000000
   O     40.25000000    36.05000000    49.96000000
   C     40.71000000    39.42000000    49.12000000
   C     39.86000000    39.95000000    47.98000000
   O     38.66000000    39.63000000    47.83000000
   O     40.51000000    40.57000000    47.11000000
   H     41.56000000    37.89000000    51.24000000
   H     38.98000000    38.89000000    50.12000000
   H     41.66000000    39.09000000    48.70000000
   H     40.99000000    40.23000000    49.80000000
   N     39.21000000    37.02000000    48.25000000
   C     38.69000000    35.81000000    47.64000000
   C     39.72000000    34.96000000    46.90000000
   O     39.73000000    33.75000000    47.10000000
   C     37.62000000    36.34000000    46.70000000
   C     36.65000000    35.19000000    46.42000000
   C     35.43000000    35.82000000    45.76000000
   C     34.30000000    34.80000000    45.87000000
   N     32.99000000    35.40000000    45.56000000
   H     38.80000000    37.89000000    47.95000000
   H     38.35000000    35.17000000    48.46000000
   H     38.06000000    36.66000000    45.76000000
   H     37.06000000    37.13000000    47.21000000
   H     36.34000000    34.83000000    47.39000000
   H     37.13000000    34.41000000    45.83000000
   H     35.60000000    36.02000000    44.70000000
   H     35.11000000    36.76000000    46.21000000
   H     34.19000000    34.40000000    46.88000000
   H     34.48000000    33.91000000    45.27000000
   H     33.00000000    35.69000000    44.59000000
   H     32.25000000    34.74000000    45.70000000
   H     32.77000000    36.16000000    46.19000000
   N     40.69000000    35.46000000    46.13000000
   C     40.85000000    36.80000000    45.60000000
   C     42.26000000    37.33000000    45.83000000
   O     43.22000000    36.67000000    46.23000000
   C     40.39000000    36.88000000    44.15000000
   C     40.32000000    38.30000000    43.61000000
   O     39.91000000    39.21000000    44.37000000
   O     40.58000000    38.44000000    42.40000000
   H     41.43000000    34.81000000    45.91000000
   H     40.17000000    37.53000000    46.04000000
   H     39.39000000    36.47000000    44.05000000
   H     41.04000000    36.30000000    43.49000000
   N     42.28000000    38.66000000    45.82000000
   C     43.44000000    39.52000000    45.65000000
   C     43.26000000    40.90000000    45.03000000
   O     43.98000000    41.78000000    45.51000000
   H     41.45000000    39.11000000    46.19000000
   H     44.13000000    38.98000000    45.01000000
   H     43.81000000    39.68000000    46.66000000
   N     42.33000000    41.01000000    44.09000000
   C     42.25000000    42.05000000    43.08000000
   C     43.56000000    42.11000000    42.31000000
   O     43.84000000    41.25000000    41.47000000
   C     41.01000000    41.98000000    42.19000000
   C     39.65000000    42.09000000    42.88000000
   O     39.51000000    42.28000000    44.11000000
   O     38.63000000    41.84000000    42.20000000
   H     41.69000000    40.22000000    44.05000000
   H     42.04000000    42.96000000    43.64000000
   H     41.02000000    41.05000000    41.63000000
   H     41.11000000    42.77000000    41.45000000
   N     44.36000000    43.17000000    42.40000000
   C     44.22000000    44.39000000    43.16000000
   C     43.53000000    45.57000000    42.49000000
   O     43.26000000    46.59000000    43.12000000
   H     45.24000000    43.03000000    41.92000000
   H     45.25000000    44.70000000    43.36000000
   H     43.67000000    44.25000000    44.09000000
   N     43.19000000    45.37000000    41.22000000
   C     42.72000000    46.44000000    40.36000000
   C     43.64000000    47.65000000    40.32000000
   O     43.26000000    48.82000000    40.42000000
   C     41.32000000    46.89000000    40.77000000
   C     40.44000000    45.65000000    40.90000000
   O     40.83000000    47.65000000    39.69000000
   H     43.69000000    44.62000000    40.75000000
   H     42.67000000    46.06000000    39.34000000
   H     41.28000000    47.42000000    41.72000000
   H     40.72000000    48.56000000    40.00000000
   H     39.42000000    45.98000000    41.11000000
   H     40.53000000    45.12000000    39.95000000
   H     40.79000000    45.07000000    41.75000000
   N     44.96000000    47.45000000    40.38000000
   C     46.02000000    48.36000000    40.01000000
   C     45.91000000    49.05000000    38.66000000
   O     46.85000000    48.94000000    37.87000000
   C     46.30000000    49.33000000    41.16000000
   C     46.23000000    48.82000000    42.59000000
   C     47.51000000    50.22000000    40.88000000
   C     47.14000000    47.61000000    42.80000000
   H     45.31000000    46.54000000    40.64000000
   H     46.93000000    47.76000000    39.91000000
   H     45.45000000    50.02000000    41.14000000
   H     45.21000000    48.54000000    42.84000000
   H     46.56000000    49.62000000    43.25000000
   H     48.33000000    49.65000000    40.45000000
   H     47.26000000    51.06000000    40.23000000
   H     47.87000000    50.69000000    41.79000000
   H     46.66000000    46.74000000    42.34000000
   H     48.12000000    47.83000000    42.38000000
   H     47.21000000    47.59000000    43.89000000
   N     44.79000000    49.71000000    38.34000000
   C     44.52000000    50.50000000    37.15000000
   C     44.31000000    51.95000000    37.59000000
   O     43.89000000    52.21000000    38.72000000
   C     43.39000000    50.02000000    36.24000000
   C     42.10000000    49.88000000    37.03000000
   O     43.54000000    48.69000000    35.79000000
   H     44.13000000    49.82000000    39.09000000
   H     45.45000000    50.47000000    36.59000000
   H     43.19000000    50.68000000    35.40000000
   H     44.38000000    48.68000000    35.31000000
   H     41.93000000    50.69000000    37.74000000
   H     41.22000000    49.71000000    36.41000000
   H     42.17000000    49.02000000    37.70000000
   N     44.44000000    52.82000000    36.59000000
   C     43.92000000    54.17000000    36.71000000
   C     42.44000000    54.19000000    37.03000000
   O     41.66000000    53.44000000    36.45000000
   C     44.13000000    55.07000000    35.49000000
   C     45.60000000    55.44000000    35.32000000
   O     43.62000000    54.54000000    34.29000000
   H     44.61000000    52.41000000    35.68000000
   H     44.49000000    54.60000000    37.53000000
   H     43.54000000    55.98000000    35.66000000
   H     44.05000000    53.70000000    34.11000000
   H     46.22000000    54.54000000    35.42000000
   H     45.83000000    55.93000000    34.37000000
   H     45.92000000    56.05000000    36.16000000
   N     42.02000000    55.03000000    37.98000000
   C     40.63000000    55.38000000    38.21000000
   C     39.71000000    54.26000000    38.68000000
   O     38.56000000    54.20000000    38.24000000
   C     40.04000000    56.07000000    36.98000000
   C     40.72000000    57.42000000    36.75000000
   C     40.07000000    58.03000000    35.51000000
   C     40.55000000    59.44000000    35.16000000
   N     40.08000000    60.41000000    36.16000000
   H     42.64000000    55.60000000    38.53000000
   H     40.56000000    56.15000000    38.97000000
   H     38.99000000    56.29000000    37.18000000
   H     40.04000000    55.48000000    36.07000000
   H     41.80000000    57.33000000    36.63000000
   H     40.60000000    58.11000000    37.58000000
   H     38.99000000    58.01000000    35.66000000
   H     40.26000000    57.48000000    34.59000000
   H     40.17000000    59.71000000    34.17000000
   H     41.63000000    59.37000000    35.23000000
   H     39.10000000    60.40000000    36.40000000
   H     40.61000000    60.47000000    37.02000000
   H     40.14000000    61.27000000    35.64000000
   N     40.21000000    53.50000000    39.66000000
   C     39.56000000    52.38000000    40.29000000
   C     40.44000000    51.22000000    40.74000000
   O     40.09000000    50.05000000    40.61000000
   C     38.64000000    52.76000000    41.45000000
   C     37.77000000    51.78000000    42.23000000
   C     36.56000000    52.35000000    42.95000000
   O     35.89000000    53.16000000    42.28000000
   O     36.25000000    51.92000000    44.08000000
   H     41.21000000    53.65000000    39.69000000
   H     38.79000000    51.97000000    39.64000000
   H     37.92000000    53.40000000    40.94000000
   H     39.21000000    53.38000000    42.15000000
   H     38.34000000    51.18000000    42.94000000
   H     37.42000000    51.14000000    41.42000000
   N     41.70000000    51.37000000    41.15000000
   C     42.36000000    52.54000000    41.69000000
   H     43.29200000    52.71200000    41.15100000
   H     41.71100000    53.40800000    41.57800000
   H     42.57600000    52.38100000    42.74700000
   H     42.21000000    50.50000000    41.04000000
  Ca     38.15000000    40.78000000    45.54000000
   O     35.93000000    41.31000000    46.72000000
   H     35.44000000    42.13000000    46.65000000
   H     35.29000000    40.68000000    47.08000000
   O     36.35000000    39.02000000    44.65000000
   H     36.43000000    38.27000000    44.06000000
   H     35.42000000    39.26000000    44.59000000
   O     36.54000000    41.53000000    43.57000000
   H     35.72000000    41.87000000    43.21000000
   H     37.19000000    41.67000000    42.88000000
   O     38.33000000    42.76000000    47.40000000
   H     38.23000000    43.70000000    47.56000000
   H     38.35000000    42.38000000    48.28000000

Ca 1.00



