%chk=loop4.cluster83.chk
%nprocshared=20
%mem=10GB
%nosave
#b3lyp/svp scf=(tight,noincore,xqc) Test 
#IOP(5/87=12) Density=Current Pop=(MK,readradii) iop(6/33=2) iop(6/42=6)

loop4.cluster83 

   -3  1 
   C     39.52000000    86.43000000    76.46000000
   C     39.03000000    87.64000000    75.68000000
   O     39.35000000    88.79000000    75.96000000
   H     40.43600000    86.68800000    76.99200000
   H     38.75700000    86.12600000    77.17700000
   H     39.72000000    85.60900000    75.77100000
   N     38.26000000    87.44000000    74.61000000
   C     38.07000000    88.24000000    73.42000000
   C     39.34000000    88.62000000    72.66000000
   O     39.35000000    88.37000000    71.45000000
   C     37.33000000    89.55000000    73.69000000
   C     36.41000000    89.64000000    74.90000000
   O     36.72000000    90.49000000    75.76000000
   O     35.37000000    88.96000000    74.93000000
   H     38.06000000    86.45000000    74.51000000
   H     37.41000000    87.66000000    72.77000000
   H     36.69000000    89.75000000    72.83000000
   H     38.05000000    90.35000000    73.85000000
   N     40.36000000    89.21000000    73.27000000
   C     41.62000000    89.55000000    72.64000000
   C     41.65000000    90.98000000    72.10000000
   O     42.10000000    91.82000000    72.87000000
   C     42.73000000    89.17000000    73.63000000
   C     44.14000000    89.35000000    73.07000000
   C     42.68000000    87.86000000    74.40000000
   C     44.68000000    88.49000000    71.94000000
   H     40.28000000    89.56000000    74.22000000
   H     41.80000000    88.84000000    71.84000000
   H     42.74000000    89.98000000    74.36000000
   H     44.82000000    89.26000000    73.92000000
   H     44.24000000    90.40000000    72.80000000
   H     41.68000000    87.65000000    74.80000000
   H     43.04000000    87.09000000    73.72000000
   H     43.42000000    87.95000000    75.20000000
   H     44.66000000    87.46000000    72.29000000
   H     43.99000000    88.55000000    71.10000000
   H     45.66000000    88.91000000    71.69000000
   N     41.16000000    91.24000000    70.89000000
   C     41.45000000    92.48000000    70.19000000
   C     40.19000000    93.34000000    70.18000000
   O     39.10000000    92.78000000    70.10000000
   C     42.02000000    92.27000000    68.79000000
   C     41.57000000    91.12000000    67.90000000
   O     41.60000000    91.29000000    66.66000000
   O     41.14000000    90.06000000    68.41000000
   H     40.90000000    90.46000000    70.31000000
   H     42.22000000    92.99000000    70.75000000
   H     43.08000000    92.10000000    69.00000000
   H     41.89000000    93.21000000    68.26000000
   N     40.30000000    94.67000000    70.23000000
   C     41.45000000    95.55000000    70.29000000
   C     42.20000000    95.41000000    71.61000000
   O     41.51000000    95.29000000    72.62000000
   H     39.38000000    95.10000000    70.21000000
   H     41.13000000    96.58000000    70.18000000
   H     42.08000000    95.37000000    69.42000000
   N     43.53000000    95.49000000    71.66000000
   C     44.56000000    95.81000000    70.69000000
   C     45.09000000    94.60000000    69.95000000
   O     45.29000000    94.82000000    68.76000000
   C     45.55000000    96.73000000    71.40000000
   C     46.68000000    97.12000000    70.45000000
   O     47.69000000    96.38000000    70.41000000
   O     46.59000000    98.18000000    69.79000000
   H     43.90000000    95.20000000    72.55000000
   H     44.13000000    96.43000000    69.91000000
   H     46.01000000    96.13000000    72.18000000
   H     45.17000000    97.61000000    71.91000000
   N     45.45000000    93.45000000    70.54000000
   C     45.75000000    93.17000000    71.93000000
   C     46.74000000    92.02000000    72.08000000
   O     46.69000000    91.04000000    71.34000000
   H     45.70000000    92.64000000    69.99000000
   H     44.82000000    92.96000000    72.45000000
   H     46.18000000    93.99000000    72.51000000
   N     47.70000000    92.20000000    72.99000000
   C     49.03000000    91.65000000    73.06000000
   C     49.36000000    90.68000000    74.18000000
   O     50.43000000    90.07000000    74.16000000
   C     50.09000000    92.74000000    72.91000000
   C     49.69000000    93.83000000    71.92000000
   C     50.78000000    94.82000000    71.57000000
   N     50.38000000    95.98000000    71.04000000
   O     51.98000000    94.63000000    71.74000000
   H     47.63000000    92.98000000    73.63000000
   H     49.17000000    91.03000000    72.17000000
   H     51.05000000    92.36000000    72.56000000
   H     50.39000000    93.14000000    73.88000000
   H     48.89000000    94.39000000    72.40000000
   H     49.37000000    93.40000000    70.97000000
   H     49.41000000    96.09000000    70.78000000
   H     51.08000000    96.57000000    70.61000000
   N     48.47000000    90.59000000    75.17000000
   C     48.68000000    89.82000000    76.38000000
   C     47.80000000    90.22000000    77.55000000
   O     46.59000000    90.41000000    77.46000000
   C     48.57000000    88.33000000    76.08000000
   C     47.22000000    87.91000000    75.51000000
   C     48.81000000    87.38000000    77.25000000
   H     47.64000000    91.16000000    75.14000000
   H     49.73000000    89.99000000    76.62000000
   H     49.31000000    87.91000000    75.40000000
   H     46.46000000    88.03000000    76.28000000
   H     47.06000000    88.63000000    74.71000000
   H     47.30000000    86.89000000    75.15000000
   H     48.87000000    86.38000000    76.81000000
   H     49.68000000    87.54000000    77.89000000
   H     47.99000000    87.47000000    77.97000000
   N     48.47000000    90.09000000    78.70000000
   C     47.93000000    90.37000000    80.02000000
   C     47.97000000    91.86000000    80.32000000
   O     47.10000000    92.35000000    81.03000000
   C     48.52000000    89.52000000    81.14000000
   C     47.75000000    89.63000000    82.45000000
   N     48.26000000    90.41000000    83.40000000
   O     46.70000000    89.01000000    82.59000000
   H     49.48000000    90.05000000    78.67000000
   H     46.87000000    90.15000000    79.89000000
   H     49.57000000    89.81000000    81.29000000
   H     48.44000000    88.47000000    80.85000000
   H     49.12000000    90.90000000    83.21000000
   H     47.77000000    90.41000000    84.29000000
   N     48.89000000    92.61000000    79.70000000
   C     48.82000000    94.06000000    79.69000000
   C     47.57000000    94.49000000    78.94000000
   O     47.17000000    93.85000000    77.97000000
   C     50.12000000    94.74000000    79.28000000
   C     50.13000000    96.25000000    79.29000000
   C     50.22000000    96.98000000    78.10000000
   C     49.98000000    96.95000000    80.49000000
   C     50.26000000    98.38000000    78.09000000
   C     50.10000000    98.34000000    80.52000000
   C     50.27000000    99.06000000    79.32000000
   O     50.26000000   100.43000000    79.34000000
   H     49.41000000    92.18000000    78.96000000
   H     48.64000000    94.30000000    80.73000000
   H     50.20000000    94.37000000    78.25000000
   H     50.98000000    94.34000000    79.83000000
   H     50.27000000    96.37000000    77.20000000
   H     49.76000000    96.45000000    81.42000000
   H     50.22000000    98.84000000    77.11000000
   H     49.96000000    98.79000000    81.49000000
   H     50.43000000   100.76000000    78.46000000
   N     46.92000000    95.60000000    79.31000000
   C     45.53000000    95.95000000    79.10000000
   C     44.41000000    94.94000000    79.34000000
   O     43.24000000    95.34000000    79.35000000
   C     45.41000000    96.67000000    77.76000000
   C     46.34000000    97.88000000    77.72000000
   C     45.89000000    98.79000000    76.58000000
   O     45.12000000    99.76000000    76.74000000
   O     46.36000000    98.51000000    75.45000000
   H     47.32000000    96.13000000    80.06000000
   H     45.35000000    96.72000000    79.85000000
   H     44.42000000    97.11000000    77.62000000
   H     45.58000000    96.05000000    76.88000000
   H     47.32000000    97.47000000    77.48000000
   H     46.45000000    98.48000000    78.62000000
   N     44.64000000    93.64000000    79.54000000
   C     43.61000000    92.73000000    80.00000000
   C     43.51000000    92.68000000    81.52000000
   O     42.43000000    92.32000000    81.98000000
   C     43.81000000    91.30000000    79.52000000
   C     43.67000000    91.23000000    78.01000000
   C     42.25000000    91.52000000    77.54000000
   O     41.23000000    90.95000000    77.99000000
   O     42.13000000    92.47000000    76.74000000
   H     45.59000000    93.30000000    79.52000000
   H     42.62000000    93.02000000    79.65000000
   H     42.98000000    90.65000000    79.83000000
   H     44.83000000    91.03000000    79.78000000
   H     43.74000000    90.17000000    77.76000000
   H     44.40000000    91.74000000    77.37000000
   N     44.57000000    93.12000000    82.21000000
   C     44.52000000    93.50000000    83.60000000
   H     43.57400000    94.00100000    83.80500000
   H     44.60200000    92.61000000    84.22400000
   H     45.34500000    94.17700000    83.82200000
   H     45.38000000    93.33000000    81.65000000
  Ca     38.61000000    91.20000000    77.48000000
   O     37.21000000    92.70000000    79.04000000
   H     37.73000000    93.46000000    79.28000000
   H     36.33000000    92.90000000    79.33000000
   O     39.34000000    89.88000000    79.62000000
   H     40.21000000    89.82000000    79.23000000
   H     39.35000000    89.25000000    80.35000000
   O     39.81000000    93.49000000    77.65000000
   H     40.71000000    93.28000000    77.39000000
   H     39.87000000    94.37000000    78.03000000
   O     36.96000000    89.43000000    78.44000000
   H     37.10000000    88.58000000    78.01000000
   H     36.39000000    89.23000000    79.18000000
   O     39.72000000    91.81000000    75.13000000
   H     40.64000000    92.08000000    75.14000000
   H     39.30000000    92.39000000    74.49000000

Ca 1.00



