%chk=loop2.cluster52.chk
%nprocshared=20
%mem=10GB
%nosave
#b3lyp/svp scf=(tight,noincore,xqc) Test 
#IOP(5/87=12) Density=Current Pop=(MK,readradii) iop(6/33=2) iop(6/42=6)

loop2.cluster52 

   -2  1 
   C     86.41000000    78.63000000    23.82000000
   C     87.89000000    78.93000000    24.00000000
   O     88.36000000    80.06000000    23.90000000
   H     85.86400000    79.56400000    23.68400000
   H     86.27100000    77.99800000    22.94300000
   H     86.03300000    78.11500000    24.70300000
   N     88.64000000    77.93000000    24.45000000
   C     90.08000000    77.99000000    24.63000000
   C     90.50000000    78.53000000    25.99000000
   O     91.33000000    77.94000000    26.68000000
   C     90.76000000    76.67000000    24.26000000
   C     92.27000000    76.79000000    24.17000000
   O     92.80000000    77.75000000    23.55000000
   O     92.98000000    75.87000000    24.63000000
   H     88.16000000    77.11000000    24.80000000
   H     90.42000000    78.68000000    23.87000000
   H     90.30000000    76.31000000    23.34000000
   H     90.55000000    75.88000000    24.98000000
   N     89.98000000    79.71000000    26.34000000
   C     90.36000000    80.46000000    27.52000000
   C     89.18000000    81.28000000    28.02000000
   O     88.21000000    81.43000000    27.29000000
   C     91.62000000    81.27000000    27.21000000
   H     89.60000000    80.25000000    25.57000000
   H     90.70000000    79.82000000    28.33000000
   H     92.41000000    80.53000000    27.06000000
   H     91.42000000    82.00000000    26.43000000
   H     91.99000000    81.85000000    28.05000000
   N     89.10000000    81.80000000    29.25000000
   C     90.01000000    81.63000000    30.36000000
   C     89.97000000    80.29000000    31.08000000
   O     89.03000000    79.53000000    30.85000000
   C     89.89000000    82.83000000    31.30000000
   C     89.54000000    84.15000000    30.61000000
   O     90.51000000    84.79000000    30.15000000
   O     88.36000000    84.44000000    30.32000000
   H     88.20000000    82.19000000    29.50000000
   H     90.98000000    81.64000000    29.86000000
   H     90.84000000    82.99000000    31.81000000
   H     89.15000000    82.59000000    32.06000000
   N     91.01000000    80.05000000    31.89000000
   C     91.08000000    78.84000000    32.68000000
   C     91.44000000    77.60000000    31.87000000
   O     92.16000000    77.72000000    30.88000000
   H     91.69000000    80.79000000    31.96000000
   H     90.16000000    78.77000000    33.25000000
   H     91.86000000    78.98000000    33.43000000
   N     90.89000000    76.41000000    32.09000000
   C     90.32000000    75.83000000    33.29000000
   C     88.83000000    76.08000000    33.39000000
   O     88.25000000    75.54000000    34.33000000
   C     90.74000000    74.37000000    33.43000000
   C     92.23000000    74.24000000    33.70000000
   N     92.76000000    74.13000000    34.92000000
   O     93.06000000    74.18000000    32.79000000
   H     91.05000000    75.72000000    31.36000000
   H     90.80000000    76.34000000    34.13000000
   H     90.28000000    73.74000000    32.67000000
   H     90.37000000    74.00000000    34.39000000
   H     92.26000000    74.23000000    35.79000000
   H     93.72000000    73.80000000    34.98000000
   N     88.26000000    77.00000000    32.61000000
   C     86.85000000    77.34000000    32.59000000
   C     86.49000000    78.47000000    33.54000000
   O     85.52000000    78.37000000    34.29000000
   H     88.75000000    77.30000000    31.78000000
   H     86.15000000    76.53000000    32.82000000
   H     86.60000000    77.54000000    31.55000000
   N     87.26000000    79.56000000    33.44000000
   C     87.09000000    80.72000000    34.28000000
   C     86.28000000    81.80000000    33.58000000
   O     86.75000000    82.92000000    33.44000000
   C     88.46000000    81.21000000    34.74000000
   C     88.60000000    82.17000000    35.91000000
   O     89.23000000    80.12000000    35.18000000
   H     88.05000000    79.63000000    32.81000000
   H     86.47000000    80.51000000    35.15000000
   H     88.94000000    81.53000000    33.81000000
   H     90.14000000    80.43000000    35.27000000
   H     89.68000000    82.26000000    36.09000000
   H     88.15000000    83.14000000    35.72000000
   H     88.14000000    81.80000000    36.83000000
   N     85.15000000    81.44000000    32.96000000
   C     84.41000000    82.25000000    32.02000000
   C     83.54000000    83.28000000    32.71000000
   O     83.10000000    83.00000000    33.83000000
   C     83.75000000    81.40000000    30.94000000
   C     84.58000000    80.29000000    30.30000000
   C     82.37000000    80.91000000    31.38000000
   C     85.83000000    80.64000000    29.50000000
   H     84.94000000    80.46000000    33.09000000
   H     85.25000000    82.76000000    31.55000000
   H     83.50000000    82.13000000    30.17000000
   H     83.89000000    79.83000000    29.59000000
   H     84.85000000    79.51000000    31.01000000
   H     82.39000000    80.28000000    32.27000000
   H     81.70000000    81.76000000    31.52000000
   H     81.89000000    80.36000000    30.58000000
   H     86.44000000    81.33000000    30.08000000
   H     86.33000000    79.68000000    29.34000000
   H     85.65000000    81.04000000    28.50000000
   N     83.37000000    84.39000000    31.98000000
   C     82.32000000    85.32000000    32.32000000
   C     80.91000000    85.06000000    31.81000000
   O     80.70000000    84.14000000    31.02000000
   C     82.74000000    86.74000000    31.96000000
   C     83.03000000    87.03000000    30.49000000
   O     84.22000000    86.93000000    30.09000000
   O     82.09000000    87.47000000    29.80000000
   H     83.79000000    84.39000000    31.07000000
   H     82.22000000    85.19000000    33.40000000
   H     83.62000000    87.05000000    32.52000000
   H     81.98000000    87.38000000    32.42000000
   N     79.95000000    85.92000000    32.19000000
   C     78.55000000    85.90000000    31.83000000
   C     78.17000000    85.67000000    30.38000000
   O     77.90000000    84.55000000    29.96000000
   C     77.75000000    84.89000000    32.64000000
   C     76.29000000    85.26000000    32.80000000
   C     75.40000000    85.04000000    31.74000000
   C     75.86000000    86.00000000    33.91000000
   C     74.06000000    85.44000000    31.78000000
   C     74.49000000    86.27000000    33.98000000
   C     73.57000000    86.01000000    32.96000000
   H     80.27000000    86.65000000    32.81000000
   H     78.27000000    86.89000000    32.20000000
   H     78.20000000    84.87000000    33.63000000
   H     77.89000000    83.86000000    32.30000000
   H     75.68000000    84.42000000    30.90000000
   H     76.53000000    86.27000000    34.71000000
   H     73.29000000    85.24000000    31.04000000
   H     74.15000000    86.86000000    34.82000000
   H     72.53000000    86.28000000    33.06000000
   N     78.19000000    86.64000000    29.45000000
   C     78.06000000    86.41000000    28.03000000
   C     79.03000000    85.37000000    27.47000000
   O     78.61000000    84.70000000    26.53000000
   C     78.29000000    87.76000000    27.36000000
   C     78.94000000    88.66000000    28.41000000
   C     78.70000000    87.96000000    29.74000000
   H     77.04000000    86.12000000    27.78000000
   H     78.97000000    87.71000000    26.51000000
   H     77.35000000    88.20000000    27.02000000
   H     80.02000000    88.73000000    28.26000000
   H     78.57000000    89.68000000    28.41000000
   H     79.68000000    87.74000000    30.17000000
   H     78.06000000    88.64000000    30.30000000
   N     80.16000000    85.20000000    28.16000000
   C     81.08000000    84.14000000    27.80000000
   C     80.58000000    82.72000000    27.96000000
   O     80.85000000    81.87000000    27.11000000
   C     82.45000000    84.38000000    28.43000000
   C     83.64000000    83.79000000    27.68000000
   C     84.93000000    84.33000000    28.28000000
   O     85.17000000    84.21000000    29.50000000
   O     85.77000000    84.94000000    27.59000000
   H     80.40000000    85.79000000    28.94000000
   H     81.19000000    84.22000000    26.71000000
   H     82.41000000    83.98000000    29.45000000
   H     82.67000000    85.44000000    28.44000000
   H     83.54000000    84.12000000    26.65000000
   H     83.62000000    82.70000000    27.72000000
   N     79.84000000    82.36000000    29.01000000
   C     79.18000000    81.11000000    29.29000000
   H     78.21100000    81.09200000    28.79100000
   H     79.79200000    80.28500000    28.92400000
   H     79.03700000    81.00700000    30.36600000
   H     79.61000000    83.14000000    29.62000000
  Ca     86.68000000    86.25000000    29.92000000
   O     86.92000000    85.54000000    32.60000000
   H     86.20000000    85.69000000    33.22000000
   H     87.11000000    84.60000000    32.69000000
   O     89.30000000    87.24000000    30.86000000
   H     89.78000000    86.42000000    30.95000000
   H     89.81000000    87.75000000    30.23000000
   O     88.70000000    86.00000000    27.83000000
   H     89.45000000    85.42000000    27.96000000
   H     88.37000000    85.77000000    26.95000000
   O     86.64000000    88.52000000    28.39000000
   H     86.42000000    88.47000000    27.46000000
   H     86.82000000    89.44000000    28.54000000

Ca 1.00



