%chk=loop1.cluster102.chk
%nprocshared=20
%mem=10GB
%nosave
#b3lyp/svp scf=(tight,noincore,xqc) Test 
#IOP(5/87=12) Density=Current Pop=(MK,readradii) iop(6/33=2) iop(6/42=6)

loop1.cluster102 

   0  1 
   C     86.77000000   108.41000000    69.81000000
   C     85.84000000   108.84000000    68.69000000
   O     85.12000000   107.96000000    68.22000000
   H     87.65500000   109.04600000    69.81100000
   H     86.25500000   108.50300000    70.76600000
   H     87.06900000   107.37300000    69.65700000
   N     85.71000000   110.13000000    68.37000000
   C     84.91000000   110.58000000    67.25000000
   C     85.55000000   110.07000000    65.97000000
   O     86.77000000   109.89000000    65.90000000
   C     84.65000000   112.09000000    67.27000000
   C     84.29000000   112.66000000    68.64000000
   O     85.12000000   113.31000000    69.31000000
   O     83.14000000   112.42000000    69.07000000
   H     86.40000000   110.73000000    68.79000000
   H     83.97000000   110.04000000    67.33000000
   H     83.82000000   112.27000000    66.58000000
   H     85.59000000   112.51000000    66.93000000
   N     84.79000000   109.69000000    64.94000000
   C     85.16000000   108.89000000    63.79000000
   C     86.04000000   109.56000000    62.75000000
   O     86.40000000   108.96000000    61.73000000
   C     83.93000000   108.22000000    63.18000000
   C     82.73000000   107.87000000    64.05000000
   C     81.77000000   106.98000000    63.28000000
   C     80.83000000   106.32000000    64.29000000
   N     79.94000000   105.31000000    63.69000000
   H     83.80000000   109.74000000    65.09000000
   H     85.79000000   108.07000000    64.12000000
   H     84.28000000   107.38000000    62.58000000
   H     83.71000000   108.92000000    62.37000000
   H     82.14000000   108.71000000    64.42000000
   H     83.09000000   107.36000000    64.94000000
   H     82.22000000   106.16000000    62.71000000
   H     81.16000000   107.58000000    62.62000000
   H     80.13000000   107.06000000    64.67000000
   H     81.40000000   105.82000000    65.07000000
   H     79.54000000   105.77000000    62.89000000
   H     80.40000000   104.49000000    63.34000000
   H     79.26000000   105.08000000    64.40000000
   N     86.45000000   110.82000000    62.90000000
   C     87.27000000   111.67000000    62.06000000
   C     87.91000000   112.90000000    62.67000000
   O     87.37000000   113.53000000    63.58000000
   C     86.38000000   112.35000000    61.02000000
   C     87.10000000   113.04000000    59.86000000
   O     88.10000000   112.47000000    59.38000000
   O     86.61000000   114.07000000    59.37000000
   H     86.24000000   111.26000000    63.79000000
   H     88.05000000   111.14000000    61.51000000
   H     85.69000000   113.05000000    61.47000000
   H     85.75000000   111.57000000    60.57000000
   N     89.10000000   113.32000000    62.23000000
   C     89.75000000   114.54000000    62.67000000
   C     91.21000000   114.77000000    62.30000000
   O     91.95000000   113.88000000    61.89000000
   H     89.55000000   112.79000000    61.49000000
   H     89.74000000   114.46000000    63.75000000
   H     89.12000000   115.36000000    62.32000000
   N     91.67000000   116.01000000    62.41000000
   C     93.05000000   116.39000000    62.17000000
   C     93.43000000   117.49000000    63.16000000
   O     92.52000000   118.13000000    63.69000000
   C     93.32000000   116.89000000    60.76000000
   C     93.07000000   115.85000000    59.67000000
   O     92.40000000   116.32000000    58.73000000
   O     93.48000000   114.68000000    59.81000000
   H     91.05000000   116.75000000    62.72000000
   H     93.62000000   115.49000000    62.36000000
   H     94.35000000   117.23000000    60.67000000
   H     92.68000000   117.74000000    60.54000000
   N     94.70000000   117.67000000    63.53000000
   C     95.16000000   118.50000000    64.63000000
   C     95.03000000   117.84000000    66.00000000
   O     95.73000000   118.35000000    66.87000000
   H     95.33000000   117.00000000    63.12000000
   H     94.63000000   119.45000000    64.61000000
   H     96.24000000   118.70000000    64.58000000
   N     94.19000000   116.82000000    66.16000000
   C     94.16000000   116.01000000    67.36000000
   C     93.79000000   116.76000000    68.63000000
   O     92.96000000   117.66000000    68.51000000
   C     93.28000000   114.78000000    67.16000000
   C     91.84000000   115.12000000    66.76000000
   O     93.70000000   113.88000000    66.16000000
   H     93.72000000   116.44000000    65.35000000
   H     95.11000000   115.48000000    67.50000000
   H     93.18000000   114.26000000    68.11000000
   H     92.89000000   113.55000000    65.76000000
   H     91.36000000   115.52000000    67.65000000
   H     91.78000000   115.84000000    65.94000000
   H     91.21000000   114.26000000    66.54000000
   N     94.28000000   116.32000000    69.79000000
   C     93.88000000   116.78000000    71.10000000
   C     94.86000000   117.67000000    71.85000000
   O     94.46000000   118.40000000    72.76000000
   C     93.52000000   115.57000000    71.97000000
   C     94.67000000   114.59000000    72.19000000
   C     92.29000000   114.97000000    71.28000000
   C     94.33000000   113.55000000    73.25000000
   H     95.15000000   115.80000000    69.75000000
   H     93.05000000   117.48000000    71.00000000
   H     93.11000000   115.92000000    72.92000000
   H     95.54000000   115.14000000    72.55000000
   H     94.86000000   114.09000000    71.25000000
   H     91.88000000   114.22000000    71.94000000
   H     91.57000000   115.76000000    71.06000000
   H     92.50000000   114.50000000    70.32000000
   H     93.74000000   113.92000000    74.09000000
   H     93.74000000   112.72000000    72.86000000
   H     95.19000000   112.96000000    73.56000000
   N     96.16000000   117.59000000    71.56000000
   C     97.22000000   118.31000000    72.25000000
   C     98.48000000   117.47000000    72.43000000
   O     98.83000000   116.76000000    71.49000000
   C     97.52000000   119.63000000    71.54000000
   C     96.45000000   120.71000000    71.62000000
   O     98.61000000   120.17000000    72.26000000
   H     96.54000000   116.92000000    70.91000000
   H     96.86000000   118.58000000    73.24000000
   H     97.79000000   119.41000000    70.51000000
   H     98.57000000   121.11000000    72.10000000
   H     96.66000000   121.66000000    71.14000000
   H     95.56000000   120.31000000    71.12000000
   H     96.15000000   120.86000000    72.66000000
   N     99.13000000   117.39000000    73.59000000
   C    100.55000000   117.10000000    73.66000000
   C    100.83000000   116.11000000    74.79000000
   O    101.93000000   115.56000000    74.80000000
   C    101.38000000   118.37000000    73.74000000
   C    101.08000000   119.27000000    74.94000000
   O    101.14000000   119.12000000    72.57000000
   H     98.80000000   117.94000000    74.37000000
   H    100.91000000   116.57000000    72.78000000
   H    102.43000000   118.10000000    73.76000000
   H    100.21000000   119.32000000    72.44000000
   H    101.56000000   118.81000000    75.80000000
   H    101.66000000   120.18000000    74.77000000
   H    100.03000000   119.58000000    75.01000000
   N     99.90000000   115.76000000    75.67000000
   C     99.91000000   114.59000000    76.52000000
   C     99.56000000   113.36000000    75.69000000
   O     98.74000000   113.45000000    74.78000000
   C     98.92000000   114.79000000    77.66000000
   C     98.74000000   113.61000000    78.61000000
   C     97.82000000   114.07000000    79.74000000
   C     97.18000000   112.91000000    80.49000000
   N     96.26000000   112.05000000    79.73000000
   H     98.99000000   116.10000000    75.39000000
   H    100.88000000   114.34000000    76.96000000
   H     97.93000000   115.02000000    77.28000000
   H     99.20000000   115.64000000    78.29000000
   H     99.72000000   113.35000000    79.03000000
   H     98.27000000   112.80000000    78.06000000
   H     97.01000000   114.64000000    79.29000000
   H     98.32000000   114.74000000    80.44000000
   H     96.65000000   113.31000000    81.35000000
   H     98.01000000   112.32000000    80.88000000
   H     96.72000000   111.63000000    78.94000000
   H     95.98000000   111.26000000    80.29000000
   H     95.37000000   112.49000000    79.52000000
   N    100.13000000   112.21000000    76.07000000
   C     99.88000000   110.95000000    75.40000000
   C    100.44000000   110.84000000    73.99000000
   O    101.31000000   111.60000000    73.59000000
   C    100.58000000   109.90000000    76.26000000
   C     99.96000000   109.74000000    77.65000000
   C     98.49000000   109.35000000    77.55000000
   O     97.66000000   110.27000000    77.74000000
   O     98.10000000   108.20000000    77.27000000
   H    100.84000000   112.21000000    76.78000000
   H     98.83000000   110.66000000    75.34000000
   H    101.64000000   110.15000000    76.34000000
   H    100.39000000   108.97000000    75.72000000
   H    100.08000000   110.68000000    78.17000000
   H    100.53000000   108.92000000    78.10000000
   N    100.04000000   109.87000000    73.16000000
   C     98.84000000   109.05000000    73.18000000
   H     98.03700000   109.56900000    72.65600000
   H     99.04100000   108.09900000    72.68600000
   H     98.54100000   108.86800000    74.21200000
   H    100.47000000   109.83000000    72.25000000
  Ca     89.19000000   110.48000000    58.34000000
   O     89.84000000   112.10000000    56.38000000
   H     89.40000000   112.54000000    55.66000000
   H     90.67000000   111.81000000    56.01000000
   O     86.93000000   109.39000000    59.02000000
   H     86.87000000   108.89000000    59.83000000
   H     86.12000000   109.19000000    58.55000000
   O     87.17000000   110.52000000    56.02000000
   H     87.59000000   110.20000000    55.23000000
   H     86.28000000   110.74000000    55.75000000
   O     89.49000000   108.53000000    56.62000000
   H     90.21000000   108.00000000    56.29000000
   H     88.86000000   108.56000000    55.90000000

Ca 1.00



