%chk=loop1.cluster56.chk
%nprocshared=20
%mem=10GB
%nosave
#b3lyp/svp scf=(tight,noincore,xqc) Test 
#IOP(5/87=12) Density=Current Pop=(MK,readradii) iop(6/33=2) iop(6/42=6)

loop1.cluster56 

   0  1 
   C     77.88000000    82.93000000    88.77000000
   C     79.16000000    83.74000000    88.92000000
   O     79.13000000    84.96000000    88.99000000
   H     77.09800000    83.56200000    88.34800000
   H     78.06000000    82.08400000    88.10600000
   H     77.56400000    82.56500000    89.74700000
   N     80.35000000    83.12000000    88.87000000
   C     81.66000000    83.72000000    88.99000000
   C     82.32000000    84.12000000    87.68000000
   O     83.35000000    84.79000000    87.71000000
   C     82.67000000    83.01000000    89.88000000
   C     82.72000000    81.51000000    89.59000000
   O     81.77000000    80.76000000    89.91000000
   O     83.70000000    81.06000000    88.96000000
   H     80.26000000    82.12000000    88.92000000
   H     81.42000000    84.66000000    89.48000000
   H     82.30000000    83.18000000    90.89000000
   H     83.69000000    83.40000000    89.81000000
   N     81.71000000    83.75000000    86.55000000
   C     82.45000000    83.80000000    85.31000000
   C     82.18000000    85.07000000    84.51000000
   O     81.03000000    85.43000000    84.30000000
   C     81.90000000    82.64000000    84.47000000
   C     82.01000000    81.22000000    85.01000000
   C     83.45000000    80.95000000    85.41000000
   C     83.79000000    79.54000000    85.88000000
   N     83.05000000    79.21000000    87.11000000
   H     80.74000000    83.46000000    86.59000000
   H     83.52000000    83.74000000    85.49000000
   H     82.44000000    82.68000000    83.53000000
   H     80.84000000    82.76000000    84.24000000
   H     81.75000000    80.54000000    84.19000000
   H     81.41000000    81.11000000    85.91000000
   H     83.80000000    81.63000000    86.19000000
   H     84.08000000    81.07000000    84.53000000
   H     84.86000000    79.47000000    86.02000000
   H     83.57000000    78.84000000    85.06000000
   H     83.23000000    79.86000000    87.87000000
   H     82.07000000    79.05000000    86.94000000
   H     83.45000000    78.37000000    87.49000000
   N     83.13000000    85.84000000    83.97000000
   C     84.56000000    85.76000000    84.18000000
   C     85.18000000    87.14000000    84.00000000
   O     85.60000000    87.59000000    82.94000000
   C     85.10000000    84.75000000    83.17000000
   C     86.61000000    84.54000000    83.18000000
   O     87.15000000    84.47000000    82.06000000
   O     87.17000000    84.33000000    84.27000000
   H     82.86000000    86.45000000    83.21000000
   H     84.73000000    85.39000000    85.19000000
   H     84.75000000    85.01000000    82.17000000
   H     84.69000000    83.77000000    83.42000000
   N     85.13000000    87.94000000    85.06000000
   C     84.50000000    87.76000000    86.36000000
   C     84.07000000    89.10000000    86.92000000
   O     84.62000000    90.18000000    86.74000000
   H     85.48000000    88.87000000    84.88000000
   H     85.25000000    87.38000000    87.05000000
   H     83.64000000    87.11000000    86.22000000
   N     82.91000000    89.22000000    87.58000000
   C     82.17000000    88.18000000    88.27000000
   C     81.53000000    88.66000000    89.57000000
   O     81.47000000    89.87000000    89.77000000
   C     81.19000000    87.43000000    87.37000000
   C     80.30000000    88.21000000    86.42000000
   O     80.31000000    88.07000000    85.18000000
   O     79.42000000    88.96000000    86.91000000
   H     83.01000000    90.12000000    88.02000000
   H     82.89000000    87.42000000    88.57000000
   H     80.57000000    86.89000000    88.09000000
   H     81.69000000    86.64000000    86.81000000
   N     81.07000000    87.74000000    90.43000000
   C     80.29000000    88.06000000    91.60000000
   C     78.95000000    88.70000000    91.23000000
   O     78.42000000    89.44000000    92.05000000
   H     81.03000000    86.79000000    90.11000000
   H     80.86000000    88.61000000    92.35000000
   H     79.93000000    87.18000000    92.13000000
   N     78.35000000    88.55000000    90.05000000
   C     77.09000000    89.13000000    89.64000000
   C     76.23000000    88.21000000    88.78000000
   O     76.67000000    87.66000000    87.77000000
   C     77.26000000    90.52000000    89.03000000
   C     75.99000000    91.36000000    89.02000000
   O     77.66000000    90.53000000    87.68000000
   H     78.85000000    87.98000000    89.37000000
   H     76.48000000    89.21000000    90.54000000
   H     78.01000000    91.06000000    89.61000000
   H     78.35000000    89.86000000    87.59000000
   H     75.17000000    90.95000000    88.44000000
   H     75.61000000    91.57000000    90.02000000
   H     76.15000000    92.36000000    88.63000000
   N     74.95000000    88.13000000    89.12000000
   C     73.89000000    87.57000000    88.31000000
   C     72.86000000    88.52000000    87.71000000
   O     72.07000000    89.10000000    88.45000000
   C     73.26000000    86.33000000    88.95000000
   C     72.15000000    85.64000000    88.16000000
   C     72.78000000    86.51000000    90.38000000
   C     72.36000000    85.29000000    86.69000000
   H     74.82000000    88.45000000    90.08000000
   H     74.33000000    87.12000000    87.42000000
   H     74.09000000    85.63000000    89.04000000
   H     71.27000000    86.28000000    88.21000000
   H     71.97000000    84.69000000    88.67000000
   H     72.09000000    87.34000000    90.50000000
   H     72.39000000    85.56000000    90.76000000
   H     73.69000000    86.74000000    90.92000000
   H     71.76000000    84.40000000    86.47000000
   H     72.08000000    86.16000000    86.10000000
   H     73.39000000    85.06000000    86.44000000
   N     72.95000000    88.74000000    86.40000000
   C     72.21000000    89.75000000    85.67000000
   C     71.46000000    89.26000000    84.44000000
   O     70.45000000    89.88000000    84.13000000
   C     73.18000000    90.89000000    85.39000000
   C     72.53000000    92.07000000    84.68000000
   O     74.35000000    90.55000000    84.68000000
   H     73.58000000    88.20000000    85.82000000
   H     71.51000000    90.14000000    86.41000000
   H     73.52000000    91.28000000    86.36000000
   H     75.09000000    91.04000000    85.05000000
   H     71.80000000    92.57000000    85.31000000
   H     73.34000000    92.72000000    84.35000000
   H     72.08000000    91.70000000    83.76000000
   N     71.75000000    88.13000000    83.79000000
   C     71.23000000    87.64000000    82.53000000
   C     71.54000000    88.55000000    81.36000000
   O     71.98000000    89.70000000    81.46000000
   C     69.75000000    87.29000000    82.64000000
   C     69.49000000    86.26000000    83.74000000
   O     69.14000000    86.65000000    81.54000000
   H     72.44000000    87.49000000    84.19000000
   H     71.74000000    86.69000000    82.42000000
   H     69.18000000    88.17000000    82.95000000
   H     68.35000000    86.19000000    81.84000000
   H     68.46000000    85.92000000    83.78000000
   H     70.23000000    85.46000000    83.80000000
   H     69.66000000    86.85000000    84.64000000
   N     71.37000000    88.07000000    80.13000000
   C     71.44000000    88.89000000    78.94000000
   C     72.66000000    88.78000000    78.04000000
   O     72.75000000    89.58000000    77.12000000
   C     70.16000000    88.70000000    78.12000000
   C     69.09000000    89.75000000    78.38000000
   C     68.56000000    89.73000000    79.81000000
   C     67.32000000    90.61000000    79.95000000
   N     67.71000000    92.00000000    80.24000000
   H     71.15000000    87.09000000    79.99000000
   H     71.52000000    89.95000000    79.15000000
   H     69.70000000    87.72000000    78.27000000
   H     70.52000000    88.74000000    77.09000000
   H     68.24000000    89.44000000    77.78000000
   H     69.27000000    90.81000000    78.16000000
   H     69.32000000    90.14000000    80.47000000
   H     68.18000000    88.72000000    79.97000000
   H     66.72000000    90.23000000    80.78000000
   H     66.73000000    90.57000000    79.03000000
   H     67.75000000    92.60000000    79.43000000
   H     67.19000000    92.47000000    80.96000000
   H     68.65000000    92.07000000    80.61000000
   N     73.67000000    87.90000000    78.12000000
   C     73.90000000    86.60000000    78.71000000
   C     72.68000000    85.68000000    78.82000000
   O     72.21000000    85.21000000    79.85000000
   C     74.67000000    86.81000000    80.01000000
   C     75.42000000    85.60000000    80.56000000
   C     76.48000000    86.09000000    81.53000000
   O     76.39000000    85.95000000    82.77000000
   O     77.57000000    86.49000000    81.08000000
   H     74.46000000    88.24000000    77.59000000
   H     74.59000000    86.07000000    78.06000000
   H     73.91000000    87.16000000    80.70000000
   H     75.35000000    87.65000000    79.89000000
   H     75.84000000    85.01000000    79.74000000
   H     74.69000000    85.02000000    81.13000000
   N     72.04000000    85.61000000    77.65000000
   C     70.81000000    84.87000000    77.44000000
   H     70.03800000    85.54600000    77.07300000
   H     70.98000000    84.08200000    76.70700000
   H     70.48600000    84.42700000    78.38200000
   H     72.54000000    85.98000000    76.85000000
  Ca     78.99000000    86.88000000    83.29000000
   O     78.11000000    89.27000000    82.49000000
   H     77.20000000    89.07000000    82.70000000
   H     78.08000000    90.15000000    82.10000000
   O     80.72000000    88.22000000    81.70000000
   H     80.39000000    88.74000000    80.96000000
   H     81.20000000    87.51000000    81.29000000
   O     78.32000000    85.35000000    85.65000000
   H     78.31000000    85.78000000    86.51000000
   H     78.86000000    84.57000000    85.78000000
   O     77.42000000    88.06000000    85.13000000
   H     76.59000000    87.80000000    85.54000000
   H     77.95000000    88.40000000    85.86000000
   O     80.20000000    85.10000000    81.35000000
   H     80.42000000    85.05000000    80.41000000
   H     80.46000000    84.25000000    81.70000000
   O     78.56000000    83.76000000    83.15000000
   H     77.69000000    83.43000000    83.37000000
   H     79.01000000    83.01000000    82.78000000

Ca 1.00



