%chk=loop2.cluster143.chk
%nprocshared=20
%mem=10GB
%nosave
#b3lyp/svp scf=(tight,noincore,xqc) Test 
#IOP(5/87=12) Density=Current Pop=(MK,readradii) iop(6/33=2) iop(6/42=6)

loop2.cluster143 

   -2  1 
   C      7.25000000    69.52000000    10.93000000
   C      6.38000000    69.80000000     9.71000000
   O      6.73000000    70.75000000     9.02000000
   H      8.14100000    70.14600000    10.89100000
   H      6.68800000    69.74400000    11.83700000
   H      7.54400000    68.47000000    10.93400000
   N      5.31000000    69.04000000     9.49000000
   C      4.52000000    69.30000000     8.31000000
   C      3.74000000    70.60000000     8.42000000
   O      3.34000000    70.98000000     9.52000000
   C      3.49000000    68.20000000     8.05000000
   C      3.28000000    67.91000000     6.57000000
   O      2.73000000    68.77000000     5.85000000
   O      3.64000000    66.86000000     5.99000000
   H      5.21000000    68.14000000     9.95000000
   H      5.20000000    69.35000000     7.46000000
   H      2.50000000    68.54000000     8.35000000
   H      3.72000000    67.27000000     8.57000000
   N      3.61000000    71.43000000     7.38000000
   C      2.92000000    72.70000000     7.40000000
   C      1.67000000    72.67000000     6.53000000
   O      0.93000000    73.65000000     6.41000000
   C      3.85000000    73.80000000     6.89000000
   H      3.93000000    71.00000000     6.52000000
   H      2.55000000    72.90000000     8.40000000
   H      3.56000000    74.79000000     7.23000000
   H      4.87000000    73.69000000     7.27000000
   H      3.93000000    73.77000000     5.80000000
   N      1.34000000    71.51000000     5.96000000
   C      0.18000000    71.31000000     5.12000000
   C     -0.71000000    70.14000000     5.54000000
   O     -1.79000000    70.02000000     4.97000000
   C      0.57000000    71.28000000     3.64000000
   C      1.54000000    70.18000000     3.23000000
   O      2.67000000    70.46000000     2.75000000
   O      1.23000000    68.97000000     3.27000000
   H      1.93000000    70.71000000     6.16000000
   H     -0.52000000    72.14000000     5.24000000
   H      1.13000000    72.18000000     3.42000000
   H     -0.30000000    71.21000000     3.00000000
   N     -0.26000000    69.26000000     6.43000000
   C     -1.00000000    68.17000000     7.03000000
   C     -1.02000000    66.90000000     6.19000000
   O     -1.60000000    65.94000000     6.71000000
   H      0.73000000    69.37000000     6.62000000
   H     -2.04000000    68.49000000     7.11000000
   H     -0.48000000    67.86000000     7.94000000
   N     -0.42000000    66.80000000     5.00000000
   C     -0.34000000    65.58000000     4.22000000
   C      0.55000000    64.46000000     4.75000000
   O      0.59000000    63.38000000     4.16000000
   C     -0.10000000    65.87000000     2.75000000
   C      1.37000000    66.02000000     2.37000000
   N      1.74000000    65.64000000     1.14000000
   O      2.27000000    66.40000000     3.11000000
   H      0.02000000    67.61000000     4.60000000
   H     -1.33000000    65.13000000     4.37000000
   H     -0.63000000    66.75000000     2.39000000
   H     -0.49000000    65.06000000     2.13000000
   H      1.04000000    65.37000000     0.47000000
   H      2.72000000    65.65000000     0.89000000
   N      1.30000000    64.71000000     5.82000000
   C      2.17000000    63.86000000     6.61000000
   C      3.32000000    63.20000000     5.86000000
   O      3.59000000    62.02000000     6.07000000
   H      1.36000000    65.67000000     6.13000000
   H      1.55000000    63.20000000     7.22000000
   H      2.60000000    64.52000000     7.37000000
   N      3.90000000    63.94000000     4.92000000
   C      4.88000000    63.53000000     3.93000000
   C      5.69000000    64.78000000     3.60000000
   O      5.06000000    65.82000000     3.42000000
   C      4.29000000    63.16000000     2.57000000
   C      5.29000000    62.85000000     1.47000000
   O      3.61000000    61.95000000     2.81000000
   H      3.71000000    64.93000000     5.01000000
   H      5.57000000    62.77000000     4.28000000
   H      3.59000000    63.97000000     2.32000000
   H      2.68000000    62.09000000     2.62000000
   H      4.70000000    62.88000000     0.56000000
   H      6.07000000    63.60000000     1.33000000
   H      5.60000000    61.81000000     1.55000000
   N      7.00000000    64.65000000     3.83000000
   C      7.97000000    65.68000000     4.15000000
   C      8.51000000    66.22000000     2.84000000
   O      9.01000000    65.47000000     2.00000000
   C      9.12000000    65.23000000     5.05000000
   C      8.75000000    64.08000000     5.98000000
   C      9.71000000    66.37000000     5.88000000
   C      9.92000000    63.63000000     6.85000000
   H      7.38000000    63.73000000     3.97000000
   H      7.39000000    66.44000000     4.66000000
   H     10.01000000    64.99000000     4.48000000
   H      8.47000000    63.24000000     5.34000000
   H      7.80000000    64.34000000     6.47000000
   H     10.62000000    66.07000000     6.40000000
   H      9.94000000    67.20000000     5.21000000
   H      8.99000000    66.64000000     6.66000000
   H     10.90000000    63.74000000     6.39000000
   H      9.84000000    64.23000000     7.76000000
   H      9.63000000    62.62000000     7.14000000
   N      8.51000000    67.55000000     2.75000000
   C      9.08000000    68.48000000     1.80000000
   C     10.42000000    68.99000000     2.32000000
   O     10.57000000    69.12000000     3.53000000
   C      8.15000000    69.64000000     1.44000000
   C      6.76000000    69.18000000     1.03000000
   O      5.77000000    69.40000000     1.75000000
   O      6.63000000    68.53000000    -0.03000000
   H      8.04000000    67.96000000     3.54000000
   H      9.39000000    67.90000000     0.93000000
   H      8.53000000    70.13000000     0.54000000
   H      8.14000000    70.32000000     2.29000000
   N     11.36000000    69.23000000     1.41000000
   C     12.64000000    69.75000000     1.85000000
   C     12.64000000    70.96000000     2.77000000
   O     13.34000000    70.97000000     3.78000000
   C     13.66000000    70.02000000     0.74000000
   C     15.03000000    70.45000000     1.22000000
   C     15.66000000    71.59000000     0.73000000
   C     15.75000000    69.60000000     2.07000000
   C     16.97000000    71.89000000     1.11000000
   C     17.05000000    69.92000000     2.47000000
   C     17.70000000    71.07000000     1.99000000
   H     11.18000000    69.03000000     0.43000000
   H     13.05000000    68.97000000     2.48000000
   H     13.17000000    70.84000000     0.22000000
   H     13.64000000    69.15000000     0.09000000
   H     15.12000000    72.33000000     0.16000000
   H     15.36000000    68.68000000     2.49000000
   H     17.38000000    72.76000000     0.62000000
   H     17.55000000    69.32000000     3.20000000
   H     18.69000000    71.34000000     2.31000000
   N     11.75000000    71.94000000     2.57000000
   C     11.50000000    72.93000000     3.59000000
   C     10.97000000    72.51000000     4.96000000
   O     11.41000000    73.00000000     6.00000000
   C     10.56000000    73.97000000     3.00000000
   C     10.62000000    73.65000000     1.50000000
   C     10.96000000    72.17000000     1.38000000
   H     12.43000000    73.45000000     3.81000000
   H      9.60000000    73.78000000     3.48000000
   H     10.86000000    75.00000000     3.20000000
   H      9.66000000    73.92000000     1.08000000
   H     11.42000000    74.23000000     1.03000000
   H     10.04000000    71.59000000     1.41000000
   H     11.58000000    71.99000000     0.50000000
   N     10.17000000    71.44000000     5.02000000
   C      9.68000000    70.81000000     6.22000000
   C     10.81000000    70.05000000     6.89000000
   O     10.83000000    70.08000000     8.12000000
   C      8.40000000    70.04000000     5.87000000
   C      7.19000000    70.87000000     5.44000000
   C      6.11000000    69.91000000     4.95000000
   O      4.95000000    70.35000000     4.84000000
   O      6.36000000    68.70000000     4.74000000
   H     10.02000000    70.93000000     4.16000000
   H      9.29000000    71.53000000     6.94000000
   H      8.12000000    69.58000000     6.81000000
   H      8.55000000    69.37000000     5.03000000
   H      7.53000000    71.46000000     4.59000000
   H      6.88000000    71.49000000     6.28000000
   N     11.77000000    69.50000000     6.14000000
   C     12.92000000    68.82000000     6.70000000
   H     13.72900000    69.53600000     6.84600000
   H     12.65000000    68.37800000     7.65900000
   H     13.24800000    68.03600000     6.01700000
   H     11.48000000    69.41000000     5.18000000
  Ca      3.99000000    68.28000000     3.53000000

Ca 1.00



