%chk=loop4.cluster88.chk
%nprocshared=20
%mem=10GB
%nosave
#b3lyp/svp scf=(tight,noincore,xqc) Test 
#IOP(5/87=12) Density=Current Pop=(MK,readradii) iop(6/33=2) iop(6/42=6)

loop4.cluster88 

   -3  1 
   C     95.34000000    22.17000000    59.77000000
   C     96.85000000    22.37000000    59.84000000
   O     97.30000000    23.02000000    58.90000000
   H     94.86400000    23.10400000    59.47100000
   H     95.10900000    21.39500000    59.03900000
   H     94.96700000    21.87000000    60.74900000
   N     97.59000000    21.89000000    60.84000000
   C     99.03000000    21.95000000    60.87000000
   C     99.65000000    23.34000000    60.83000000
   O    100.62000000    23.60000000    60.13000000
   C     99.72000000    20.97000000    59.92000000
   C     99.07000000    19.60000000    60.01000000
   O     98.45000000    19.04000000    59.08000000
   O     99.31000000    19.00000000    61.08000000
   H     97.15000000    21.30000000    61.54000000
   H     99.31000000    21.66000000    61.88000000
   H    100.76000000    20.83000000    60.22000000
   H     99.63000000    21.28000000    58.87000000
   N     99.16000000    24.21000000    61.72000000
   C     99.73000000    25.52000000    61.98000000
   C    100.26000000    25.49000000    63.41000000
   O     99.50000000    25.24000000    64.34000000
   C     98.82000000    26.66000000    61.55000000
   C     98.90000000    26.86000000    60.04000000
   C     99.26000000    27.96000000    62.23000000
   C     97.67000000    27.47000000    59.38000000
   H     98.26000000    23.99000000    62.13000000
   H    100.67000000    25.56000000    61.42000000
   H     97.80000000    26.38000000    61.81000000
   H     99.08000000    25.90000000    59.55000000
   H     99.79000000    27.38000000    59.67000000
   H     98.55000000    28.68000000    61.82000000
   H     98.90000000    27.89000000    63.25000000
   H    100.27000000    28.33000000    62.05000000
   H     97.44000000    28.39000000    59.92000000
   H     97.93000000    27.90000000    58.41000000
   H     96.80000000    26.82000000    59.35000000
   N    101.54000000    25.75000000    63.68000000
   C    102.68000000    26.14000000    62.87000000
   C    103.34000000    24.93000000    62.23000000
   O    104.05000000    25.17000000    61.25000000
   C    103.69000000    26.97000000    63.66000000
   C    102.96000000    27.91000000    64.60000000
   O    102.83000000    29.09000000    64.22000000
   O    102.79000000    27.57000000    65.79000000
   H    101.73000000    25.73000000    64.67000000
   H    102.26000000    26.77000000    62.09000000
   H    104.35000000    27.48000000    62.96000000
   H    104.35000000    26.36000000    64.27000000
   N    103.17000000    23.71000000    62.73000000
   C    103.79000000    22.50000000    62.23000000
   C    105.30000000    22.41000000    62.40000000
   O    105.96000000    23.06000000    63.21000000
   H    102.61000000    23.56000000    63.56000000
   H    103.61000000    22.37000000    61.16000000
   H    103.35000000    21.60000000    62.65000000
   N    105.94000000    21.58000000    61.58000000
   C    107.35000000    21.66000000    61.25000000
   C    107.53000000    22.53000000    60.02000000
   O    108.65000000    22.90000000    59.65000000
   C    108.00000000    20.30000000    61.02000000
   C    107.27000000    19.33000000    60.12000000
   O    107.57000000    18.11000000    60.15000000
   O    106.34000000    19.72000000    59.37000000
   H    105.39000000    20.94000000    61.02000000
   H    107.92000000    22.02000000    62.11000000
   H    108.07000000    19.79000000    61.98000000
   H    109.02000000    20.49000000    60.68000000
   N    106.43000000    22.81000000    59.32000000
   C    106.33000000    23.48000000    58.04000000
   C    106.53000000    22.51000000    56.89000000
   O    106.79000000    22.98000000    55.78000000
   H    105.58000000    22.43000000    59.72000000
   H    107.01000000    24.33000000    57.92000000
   H    105.32000000    23.88000000    58.01000000
   N    106.54000000    21.18000000    57.01000000
   C    106.57000000    20.18000000    55.97000000
   C    105.44000000    20.14000000    54.94000000
   O    105.59000000    20.42000000    53.75000000
   C    107.97000000    20.09000000    55.37000000
   C    108.17000000    18.79000000    54.59000000
   C    109.59000000    18.59000000    54.07000000
   N    109.78000000    17.81000000    53.01000000
   O    110.54000000    19.22000000    54.53000000
   H    106.46000000    20.82000000    57.95000000
   H    106.41000000    19.25000000    56.52000000
   H    108.68000000    20.09000000    56.19000000
   H    108.10000000    20.91000000    54.65000000
   H    107.54000000    18.80000000    53.70000000
   H    107.77000000    17.93000000    55.12000000
   H    109.00000000    17.42000000    52.50000000
   H    110.73000000    17.79000000    52.66000000
   N    104.21000000    20.12000000    55.45000000
   C    103.00000000    20.21000000    54.66000000
   C    102.71000000    18.89000000    53.95000000
   O    103.09000000    17.80000000    54.38000000
   C    101.79000000    20.67000000    55.47000000
   C    101.45000000    19.62000000    56.53000000
   C    101.85000000    22.07000000    56.07000000
   H    104.21000000    19.88000000    56.44000000
   H    103.25000000    20.88000000    53.84000000
   H    101.00000000    20.69000000    54.73000000
   H    100.50000000    19.93000000    56.96000000
   H    101.42000000    18.62000000    56.11000000
   H    102.26000000    19.57000000    57.25000000
   H    101.99000000    22.79000000    55.26000000
   H    100.89000000    22.31000000    56.53000000
   H    102.69000000    22.17000000    56.76000000
   N    102.01000000    19.08000000    52.83000000
   C    101.38000000    18.09000000    51.97000000
   C     99.87000000    18.14000000    52.12000000
   O     99.32000000    19.23000000    52.30000000
   C    101.86000000    18.28000000    50.54000000
   C    101.99000000    16.94000000    49.85000000
   N    103.16000000    16.60000000    49.30000000
   O    101.03000000    16.18000000    49.75000000
   H    101.77000000    20.05000000    52.72000000
   H    101.72000000    17.12000000    52.34000000
   H    102.76000000    18.90000000    50.52000000
   H    101.08000000    18.80000000    49.97000000
   H    104.02000000    17.12000000    49.46000000
   H    103.26000000    15.82000000    48.66000000
   N     99.23000000    16.99000000    51.89000000
   C     97.80000000    16.82000000    51.68000000
   C     97.43000000    15.40000000    52.06000000
   O     98.09000000    14.40000000    51.81000000
   C     97.61000000    17.02000000    50.17000000
   C     96.29000000    16.61000000    49.59000000
   C     95.18000000    17.35000000    50.01000000
   C     96.03000000    15.56000000    48.69000000
   C     93.91000000    17.13000000    49.46000000
   C     94.80000000    15.32000000    48.05000000
   C     93.75000000    16.18000000    48.43000000
   O     92.53000000    16.01000000    47.84000000
   H     99.84000000    16.22000000    51.68000000
   H     97.20000000    17.59000000    52.17000000
   H     98.40000000    16.47000000    49.65000000
   H     97.77000000    18.06000000    49.91000000
   H     95.29000000    18.13000000    50.74000000
   H     96.83000000    14.92000000    48.36000000
   H     93.11000000    17.80000000    49.73000000
   H     94.66000000    14.55000000    47.31000000
   H     92.59000000    15.32000000    47.18000000
   N     96.25000000    15.26000000    52.67000000
   C     95.69000000    13.96000000    53.00000000
   C     94.51000000    13.59000000    52.11000000
   O     94.62000000    12.61000000    51.38000000
   C     95.50000000    13.81000000    54.50000000
   C     96.82000000    13.58000000    55.23000000
   C     96.73000000    13.72000000    56.74000000
   O     96.50000000    14.78000000    57.37000000
   O     96.79000000    12.61000000    57.30000000
   H     95.71000000    16.07000000    52.93000000
   H     96.44000000    13.20000000    52.78000000
   H     94.90000000    12.89000000    54.60000000
   H     94.94000000    14.65000000    54.90000000
   H     97.54000000    14.29000000    54.81000000
   H     97.07000000    12.53000000    55.08000000
   N     93.51000000    14.45000000    51.93000000
   C     93.02000000    15.38000000    52.93000000
   C     92.47000000    16.75000000    52.53000000
   O     91.61000000    16.75000000    51.65000000
   C     92.08000000    14.68000000    53.90000000
   C     90.89000000    13.98000000    53.25000000
   C     89.84000000    13.45000000    54.23000000
   O     90.11000000    13.34000000    55.44000000
   O     88.71000000    13.28000000    53.74000000
   H     92.87000000    14.32000000    51.15000000
   H     93.89000000    15.61000000    53.54000000
   H     91.75000000    15.32000000    54.72000000
   H     92.72000000    13.96000000    54.42000000
   H     91.14000000    13.24000000    52.49000000
   H     90.40000000    14.78000000    52.70000000
   N     92.75000000    17.78000000    53.33000000
   C     92.17000000    19.11000000    53.21000000
   H     91.21500000    19.13800000    53.73400000
   H     92.84700000    19.84300000    53.64900000
   H     92.01300000    19.34500000    52.15700000
   H     93.46000000    17.58000000    54.01000000
  Ca     97.23000000    16.74000000    58.86000000
   O     95.23000000    17.94000000    57.46000000
   H     94.32000000    17.72000000    57.26000000
   H     95.18000000    18.79000000    57.89000000
   O     98.06000000    17.04000000    56.31000000
   H     98.33000000    16.30000000    55.77000000
   H     97.95000000    17.77000000    55.70000000
   O     99.60000000    15.74000000    58.82000000
   H     99.73000000    14.89000000    58.39000000
   H    100.43000000    16.20000000    58.69000000
   O     97.86000000    16.97000000    61.46000000
   H     98.08000000    16.83000000    62.38000000
   H     98.39000000    17.73000000    61.20000000
   O     96.90000000    14.15000000    59.87000000
   H     96.43000000    13.67000000    59.18000000
   H     96.96000000    13.52000000    60.59000000

Ca 1.00



