%chk=loop3.cluster111.chk
%nprocshared=20
%mem=10GB
%nosave
#b3lyp/svp scf=(tight,noincore,xqc) Test 
#IOP(5/87=12) Density=Current Pop=(MK,readradii) iop(6/33=2) iop(6/42=6)

loop3.cluster111 

   0  1 
   C    101.32000000    45.06000000    12.42000000
   C    101.20000000    46.44000000    11.80000000
   O    100.15000000    47.08000000    11.72000000
   H    102.08700000    45.07600000    13.19500000
   H    100.36500000    44.77500000    12.86100000
   H    101.59600000    44.33800000    11.65100000
   N    102.37000000    47.00000000    11.48000000
   C    102.49000000    48.05000000    10.50000000
   C    102.01000000    47.54000000     9.15000000
   O    102.27000000    46.38000000     8.83000000
   C    103.86000000    48.73000000    10.40000000
   C    104.96000000    47.70000000    10.23000000
   O    105.29000000    47.04000000    11.24000000
   O    105.46000000    47.57000000     9.09000000
   H    103.22000000    46.47000000    11.61000000
   H    101.82000000    48.82000000    10.89000000
   H    104.20000000    49.33000000    11.24000000
   H    103.85000000    49.42000000     9.55000000
   N    101.37000000    48.38000000     8.34000000
   C    101.11000000    48.14000000     6.94000000
   C     99.96000000    47.18000000     6.66000000
   O     99.97000000    46.62000000     5.56000000
   C    100.83000000    49.50000000     6.30000000
   C    100.74000000    49.51000000     4.78000000
   C    100.68000000    50.92000000     4.21000000
   C    101.83000000    51.84000000     4.61000000
   N    101.50000000    53.23000000     4.26000000
   H    101.07000000    49.28000000     8.70000000
   H    101.98000000    47.70000000     6.45000000
   H    101.65000000    50.16000000     6.61000000
   H     99.94000000    49.96000000     6.73000000
   H     99.91000000    48.89000000     4.43000000
   H    101.59000000    49.06000000     4.26000000
   H     99.72000000    51.35000000     4.50000000
   H    100.62000000    50.86000000     3.12000000
   H    102.73000000    51.47000000     4.12000000
   H    102.01000000    51.78000000     5.68000000
   H    101.36000000    53.21000000     3.26000000
   H    100.67000000    53.57000000     4.72000000
   H    102.23000000    53.91000000     4.46000000
   N     99.07000000    46.94000000     7.62000000
   C     97.92000000    46.07000000     7.44000000
   C     96.98000000    46.77000000     6.46000000
   O     96.33000000    46.15000000     5.63000000
   C     97.20000000    45.60000000     8.70000000
   C     96.97000000    46.72000000     9.70000000
   O     96.44000000    46.46000000    10.81000000
   O     97.17000000    47.91000000     9.38000000
   H     99.13000000    47.42000000     8.51000000
   H     98.26000000    45.12000000     7.02000000
   H     97.80000000    44.91000000     9.29000000
   H     96.24000000    45.12000000     8.51000000
   N     97.07000000    48.10000000     6.37000000
   C     96.52000000    48.99000000     5.38000000
   C     96.27000000    50.43000000     5.80000000
   O     96.48000000    50.75000000     6.97000000
   H     97.71000000    48.49000000     7.04000000
   H     95.58000000    48.49000000     5.16000000
   H     97.08000000    48.95000000     4.44000000
   N     95.65000000    51.29000000     4.98000000
   C     94.86000000    50.96000000     3.81000000
   C     93.45000000    51.51000000     3.93000000
   O     93.26000000    52.58000000     4.52000000
   C     95.36000000    51.55000000     2.50000000
   C     96.87000000    51.68000000     2.37000000
   N     97.68000000    50.65000000     2.12000000
   O     97.40000000    52.79000000     2.42000000
   H     95.47000000    52.22000000     5.34000000
   H     94.86000000    49.87000000     3.72000000
   H     94.93000000    52.52000000     2.28000000
   H     95.05000000    50.83000000     1.74000000
   H     97.33000000    49.75000000     1.82000000
   H     98.53000000    50.82000000     1.60000000
   N     92.42000000    50.96000000     3.29000000
   C     92.32000000    49.76000000     2.49000000
   C     91.93000000    48.55000000     3.33000000
   O     92.59000000    48.34000000     4.35000000
   H     91.53000000    51.42000000     3.45000000
   H     93.23000000    49.60000000     1.91000000
   H     91.55000000    49.91000000     1.73000000
   N     91.14000000    47.66000000     2.72000000
   C     90.81000000    46.34000000     3.21000000
   C     90.85000000    45.34000000     2.06000000
   O     89.90000000    44.64000000     1.74000000
   C     89.47000000    46.29000000     3.94000000
   C     89.45000000    47.21000000     5.14000000
   C     90.18000000    46.92000000     6.30000000
   C     88.64000000    48.35000000     5.10000000
   C     90.02000000    47.74000000     7.42000000
   C     88.41000000    49.18000000     6.21000000
   C     89.17000000    48.86000000     7.35000000
   O     88.99000000    49.72000000     8.40000000
   H     90.62000000    48.04000000     1.94000000
   H     91.59000000    46.16000000     3.96000000
   H     89.34000000    45.30000000     4.37000000
   H     88.67000000    46.47000000     3.22000000
   H     90.81000000    46.05000000     6.41000000
   H     88.07000000    48.55000000     4.21000000
   H     90.47000000    47.45000000     8.36000000
   H     87.82000000    50.08000000     6.12000000
   H     88.37000000    50.42000000     8.22000000
   N     92.02000000    45.30000000     1.41000000
   C     92.05000000    44.97000000     0.00000000
   C     92.31000000    43.50000000    -0.27000000
   O     92.05000000    43.07000000    -1.39000000
   C     92.97000000    45.89000000    -0.80000000
   C     92.33000000    47.20000000    -1.24000000
   C     94.30000000    46.18000000    -0.10000000
   C     93.22000000    47.96000000    -2.22000000
   H     92.89000000    45.55000000     1.87000000
   H     91.04000000    45.11000000    -0.39000000
   H     93.18000000    45.35000000    -1.72000000
   H     92.15000000    47.85000000    -0.38000000
   H     91.37000000    46.94000000    -1.68000000
   H     94.07000000    46.96000000     0.62000000
   H     94.54000000    45.29000000     0.49000000
   H     94.98000000    46.47000000    -0.90000000
   H     93.48000000    47.26000000    -3.01000000
   H     92.70000000    48.81000000    -2.66000000
   H     94.15000000    48.27000000    -1.72000000
   N     92.87000000    42.70000000     0.65000000
   C     93.24000000    41.32000000     0.38000000
   C     94.74000000    41.16000000     0.57000000
   O     95.32000000    40.26000000    -0.04000000
   C     92.47000000    40.24000000     1.14000000
   O     92.99000000    39.99000000     2.42000000
   H     93.11000000    43.13000000     1.53000000
   H     93.02000000    41.02000000    -0.64000000
   H     92.55000000    39.34000000     0.53000000
   H     91.42000000    40.56000000     1.18000000
   H     93.02000000    40.86000000     2.84000000
   N     95.37000000    42.09000000     1.29000000
   C     96.77000000    42.13000000     1.69000000
   C     97.10000000    41.19000000     2.84000000
   O     97.85000000    41.57000000     3.73000000
   C     97.12000000    43.60000000     1.92000000
   H     94.80000000    42.84000000     1.64000000
   H     97.34000000    41.89000000     0.80000000
   H     96.84000000    43.73000000     2.96000000
   H     98.21000000    43.66000000     1.86000000
   H     96.72000000    44.34000000     1.23000000
   N     96.34000000    40.10000000     2.88000000
   C     96.10000000    39.14000000     3.95000000
   C     96.01000000    39.84000000     5.29000000
   O     96.78000000    39.57000000     6.21000000
   C     97.10000000    38.01000000     3.74000000
   H     95.72000000    39.92000000     2.10000000
   H     95.14000000    38.68000000     3.70000000
   H     97.02000000    37.29000000     4.56000000
   H     97.03000000    37.63000000     2.72000000
   H     98.09000000    38.48000000     3.77000000
   N     95.29000000    40.96000000     5.34000000
   C     94.98000000    41.77000000     6.51000000
   C     93.67000000    41.27000000     7.10000000
   O     93.63000000    41.26000000     8.33000000
   C     94.99000000    43.26000000     6.20000000
   C     93.80000000    43.76000000     5.40000000
   C     93.81000000    43.26000000     3.96000000
   O     93.45000000    42.10000000     3.67000000
   O     94.09000000    44.07000000     3.04000000
   H     94.94000000    41.26000000     4.44000000
   H     95.81000000    41.71000000     7.22000000
   H     95.83000000    43.47000000     5.54000000
   H     95.11000000    43.75000000     7.17000000
   H     93.83000000    44.85000000     5.40000000
   H     92.85000000    43.52000000     5.88000000
   N     92.75000000    40.77000000     6.27000000
   C     91.53000000    40.18000000     6.78000000
   H     90.72700000    40.32500000     6.05700000
   H     91.68300000    39.11300000     6.94400000
   H     91.26100000    40.65800000     7.72200000
   H     93.02000000    40.68000000     5.30000000
  Ca     95.88000000    49.01000000    11.63000000
   O     96.01000000    47.28000000    13.68000000
   H     95.17000000    47.09000000    14.10000000
   H     96.65000000    47.22000000    14.39000000
   O     96.23000000    50.82000000     9.59000000
   H     96.49000000    50.90000000     8.67000000
   H     95.67000000    51.57000000     9.75000000
   O     98.47000000    49.44000000    11.49000000
   H     99.07000000    48.69000000    11.51000000
   H     98.69000000    49.89000000    10.68000000
   O     93.50000000    48.39000000    12.75000000
   H     93.31000000    49.04000000    13.42000000
   H     92.67000000    47.94000000    12.60000000
   O     94.31000000    51.20000000    11.46000000
   H     94.68000000    52.01000000    11.12000000
   H     94.21000000    51.37000000    12.40000000

Ca 1.00



