%chk=loop4.cluster1.chk
%nprocshared=20
%mem=10GB
%nosave
#b3lyp/svp scf=(tight,noincore,xqc) Test 
#IOP(5/87=12) Density=Current Pop=(MK,readradii) iop(6/33=2) iop(6/42=6)

loop4.cluster1 

   -3  1 
   C     70.75000000    53.53000000    46.39000000
   C     69.81000000    53.50000000    47.59000000
   O     69.11000000    54.48000000    47.82000000
   H     71.71300000    53.10400000    46.67200000
   H     70.32000000    52.94700000    45.57600000
   H     70.89100000    54.56100000    46.06400000
   N     69.84000000    52.48000000    48.45000000
   C     69.42000000    52.65000000    49.83000000
   C     70.25000000    53.67000000    50.58000000
   O     71.44000000    53.50000000    50.80000000
   C     69.42000000    51.29000000    50.53000000
   C     69.09000000    51.40000000    52.01000000
   O     68.41000000    52.36000000    52.43000000
   O     69.64000000    50.57000000    52.77000000
   H     70.65000000    51.89000000    48.35000000
   H     68.42000000    53.09000000    49.84000000
   H     70.43000000    50.87000000    50.52000000
   H     68.69000000    50.63000000    50.06000000
   N     69.61000000    54.65000000    51.23000000
   C     70.20000000    55.85000000    51.79000000
   C     70.51000000    55.53000000    53.25000000
   O     71.58000000    55.88000000    53.76000000
   C     69.40000000    57.12000000    51.53000000
   C     69.26000000    57.27000000    50.02000000
   C     70.02000000    58.36000000    52.16000000
   C     68.23000000    58.29000000    49.56000000
   H     68.66000000    54.74000000    50.91000000
   H     71.17000000    56.14000000    51.38000000
   H     68.42000000    57.03000000    52.00000000
   H     68.93000000    56.32000000    49.58000000
   H     70.23000000    57.45000000    49.55000000
   H     69.60000000    59.25000000    51.68000000
   H     70.00000000    58.36000000    53.25000000
   H     71.05000000    58.61000000    51.90000000
   H     67.28000000    58.15000000    50.08000000
   H     68.59000000    59.31000000    49.65000000
   H     68.05000000    58.27000000    48.48000000
   N     69.68000000    54.74000000    53.92000000
   C     69.53000000    54.79000000    55.37000000
   C     69.65000000    53.42000000    56.02000000
   O     69.65000000    53.28000000    57.24000000
   C     68.32000000    55.61000000    55.79000000
   C     67.02000000    55.13000000    55.16000000
   O     65.98000000    55.69000000    55.56000000
   O     67.04000000    54.24000000    54.28000000
   H     69.01000000    54.22000000    53.38000000
   H     70.43000000    55.30000000    55.72000000
   H     68.55000000    56.63000000    55.48000000
   H     68.21000000    55.51000000    56.87000000
   N     70.02000000    52.42000000    55.22000000
   C     70.51000000    51.13000000    55.68000000
   C     69.45000000    50.24000000    56.31000000
   O     69.70000000    49.76000000    57.41000000
   H     69.87000000    52.66000000    54.25000000
   H     71.24000000    51.23000000    56.48000000
   H     71.04000000    50.61000000    54.88000000
   N     68.31000000    50.06000000    55.64000000
   C     67.37000000    49.00000000    55.96000000
   C     67.29000000    47.83000000    54.99000000
   O     66.45000000    46.93000000    55.04000000
   C     65.98000000    49.62000000    56.12000000
   C     65.70000000    50.53000000    54.93000000
   O     64.86000000    51.45000000    55.01000000
   O     66.38000000    50.45000000    53.89000000
   H     68.22000000    50.60000000    54.79000000
   H     67.62000000    48.69000000    56.97000000
   H     65.88000000    50.24000000    57.01000000
   H     65.24000000    48.82000000    56.08000000
   N     68.21000000    47.93000000    54.03000000
   C     68.29000000    47.12000000    52.83000000
   C     67.27000000    47.39000000    51.74000000
   O     67.17000000    46.55000000    50.85000000
   H     68.77000000    48.78000000    54.03000000
   H     68.37000000    46.05000000    53.03000000
   H     69.12000000    47.56000000    52.29000000
   N     66.47000000    48.46000000    51.78000000
   C     65.32000000    48.72000000    50.93000000
   C     65.38000000    49.96000000    50.05000000
   O     65.82000000    51.02000000    50.49000000
   C     64.15000000    48.86000000    51.89000000
   C     63.96000000    47.53000000    52.61000000
   C     62.88000000    47.39000000    53.68000000
   N     62.66000000    46.20000000    54.24000000
   O     62.17000000    48.33000000    54.01000000
   H     66.59000000    49.09000000    52.56000000
   H     65.08000000    47.96000000    50.19000000
   H     63.26000000    49.04000000    51.28000000
   H     64.22000000    49.77000000    52.49000000
   H     64.88000000    47.35000000    53.18000000
   H     63.72000000    46.79000000    51.85000000
   H     63.03000000    45.32000000    53.91000000
   H     62.01000000    46.16000000    55.02000000
   N     64.86000000    49.85000000    48.83000000
   C     64.79000000    50.94000000    47.89000000
   C     63.35000000    51.39000000    47.65000000
   O     62.59000000    50.75000000    46.93000000
   C     65.65000000    50.62000000    46.67000000
   C     65.49000000    51.75000000    45.65000000
   C     67.15000000    50.64000000    46.94000000
   H     64.56000000    48.89000000    48.67000000
   H     65.27000000    51.85000000    48.26000000
   H     65.24000000    49.69000000    46.29000000
   H     65.89000000    51.53000000    44.66000000
   H     64.47000000    52.08000000    45.44000000
   H     65.92000000    52.70000000    45.96000000
   H     67.67000000    50.55000000    45.99000000
   H     67.43000000    51.52000000    47.52000000
   H     67.40000000    49.79000000    47.59000000
   N     63.06000000    52.50000000    48.34000000
   C     61.73000000    53.06000000    48.20000000
   C     61.50000000    53.81000000    46.89000000
   O     62.45000000    53.94000000    46.13000000
   C     61.39000000    53.69000000    49.54000000
   C     61.43000000    55.21000000    49.58000000
   N     60.67000000    55.86000000    50.47000000
   O     62.13000000    55.88000000    48.82000000
   H     63.68000000    52.97000000    48.98000000
   H     61.05000000    52.20000000    48.26000000
   H     62.12000000    53.41000000    50.31000000
   H     60.39000000    53.39000000    49.87000000
   H     59.98000000    55.51000000    51.11000000
   H     60.71000000    56.87000000    50.45000000
   N     60.29000000    54.30000000    46.61000000
   C     60.06000000    54.98000000    45.35000000
   C     60.78000000    56.31000000    45.19000000
   O     61.11000000    56.78000000    44.11000000
   C     58.58000000    55.17000000    45.06000000
   C     58.22000000    55.96000000    43.82000000
   C     58.56000000    55.45000000    42.57000000
   C     57.54000000    57.18000000    43.84000000
   C     58.34000000    56.10000000    41.35000000
   C     57.35000000    57.89000000    42.64000000
   C     57.62000000    57.31000000    41.39000000
   O     57.43000000    58.04000000    40.25000000
   H     59.49000000    54.11000000    47.20000000
   H     60.51000000    54.37000000    44.57000000
   H     58.29000000    55.72000000    45.96000000
   H     58.16000000    54.16000000    45.07000000
   H     59.08000000    54.51000000    42.43000000
   H     57.12000000    57.49000000    44.78000000
   H     58.81000000    55.74000000    40.44000000
   H     56.85000000    58.84000000    42.71000000
   H     56.83000000    58.78000000    40.41000000
   N     61.04000000    57.01000000    46.30000000
   C     61.84000000    58.21000000    46.23000000
   C     63.30000000    57.81000000    46.10000000
   O     63.91000000    58.43000000    45.23000000
   C     61.51000000    59.08000000    47.45000000
   C     62.21000000    60.43000000    47.50000000
   C     61.45000000    61.44000000    48.35000000
   O     60.49000000    62.03000000    47.81000000
   O     61.85000000    61.70000000    49.50000000
   H     60.89000000    56.59000000    47.21000000
   H     61.50000000    58.79000000    45.37000000
   H     61.80000000    58.58000000    48.37000000
   H     60.43000000    59.19000000    47.45000000
   H     62.39000000    60.89000000    46.53000000
   H     63.23000000    60.35000000    47.88000000
   N     63.86000000    56.84000000    46.83000000
   C     65.19000000    56.32000000    46.59000000
   C     65.52000000    55.96000000    45.15000000
   O     66.65000000    55.97000000    44.68000000
   C     65.50000000    55.14000000    47.50000000
   C     65.57000000    55.64000000    48.94000000
   C     65.67000000    54.57000000    50.02000000
   O     66.67000000    54.61000000    50.77000000
   O     64.77000000    53.75000000    50.29000000
   H     63.26000000    56.25000000    47.39000000
   H     65.88000000    57.12000000    46.85000000
   H     66.46000000    54.68000000    47.27000000
   H     64.74000000    54.35000000    47.49000000
   H     64.64000000    56.19000000    49.09000000
   H     66.48000000    56.24000000    49.01000000
   N     64.49000000    55.61000000    44.37000000
   C     64.60000000    55.20000000    42.99000000
   H     65.65200000    55.15200000    42.70800000
   H     64.14600000    54.21700000    42.86500000
   H     64.08700000    55.92100000    42.35400000
   H     63.56000000    55.74000000    44.76000000
  Ca     65.82000000    52.73000000    52.55000000
   O     63.28000000    52.08000000    52.30000000
   H     62.65000000    51.53000000    52.76000000
   H     62.76000000    52.50000000    51.60000000
   O     64.37000000    54.76000000    53.83000000
   H     65.05000000    55.20000000    54.33000000
   H     63.93000000    55.46000000    53.36000000

Ca 1.00



