%chk=loop4.cluster111.chk
%nprocshared=20
%mem=10GB
%nosave
#b3lyp/svp scf=(tight,noincore,xqc) Test 
#IOP(5/87=12) Density=Current Pop=(MK,readradii) iop(6/33=2) iop(6/42=6)

loop4.cluster111 

   -3  1 
   C     75.60000000    51.71000000    36.71000000
   C     75.00000000    50.58000000    37.53000000
   O     73.98000000    50.71000000    38.20000000
   H     76.59800000    51.42600000    36.37700000
   H     74.97000000    51.90400000    35.84200000
   H     75.66400000    52.61000000    37.32200000
   N     75.70000000    49.44000000    37.55000000
   C     75.40000000    48.18000000    38.21000000
   C     75.68000000    48.17000000    39.71000000
   O     76.82000000    48.09000000    40.14000000
   C     76.24000000    47.15000000    37.45000000
   C     76.13000000    45.77000000    38.08000000
   O     75.19000000    45.53000000    38.87000000
   O     77.05000000    44.96000000    37.84000000
   H     76.57000000    49.47000000    37.05000000
   H     74.34000000    47.93000000    38.18000000
   H     77.30000000    47.39000000    37.52000000
   H     75.91000000    47.12000000    36.42000000
   N     74.62000000    48.36000000    40.50000000
   C     74.74000000    48.75000000    41.89000000
   C     75.10000000    47.58000000    42.80000000
   O     75.71000000    47.74000000    43.86000000
   C     73.44000000    49.44000000    42.27000000
   C     73.71000000    50.93000000    42.04000000
   C     72.92000000    49.19000000    43.68000000
   C     72.38000000    51.67000000    41.94000000
   H     73.69000000    48.27000000    40.12000000
   H     75.54000000    49.48000000    42.00000000
   H     72.66000000    49.19000000    41.55000000
   H     74.22000000    51.05000000    41.08000000
   H     74.35000000    51.31000000    42.83000000
   H     73.67000000    49.27000000    44.46000000
   H     72.17000000    49.96000000    43.85000000
   H     72.54000000    48.16000000    43.72000000
   H     71.91000000    51.82000000    42.92000000
   H     72.56000000    52.68000000    41.58000000
   H     71.72000000    51.18000000    41.22000000
   N     74.67000000    46.39000000    42.37000000
   C     74.89000000    45.16000000    43.09000000
   C     76.07000000    44.34000000    42.58000000
   O     76.58000000    43.56000000    43.38000000
   C     73.71000000    44.23000000    42.85000000
   C     73.10000000    44.24000000    41.45000000
   O     72.48000000    45.25000000    41.06000000
   O     73.26000000    43.27000000    40.67000000
   H     74.14000000    46.36000000    41.51000000
   H     74.91000000    45.41000000    44.16000000
   H     72.93000000    44.49000000    43.56000000
   H     74.01000000    43.20000000    43.02000000
   N     76.50000000    44.59000000    41.34000000
   C     77.68000000    43.94000000    40.80000000
   C     77.41000000    42.62000000    40.09000000
   O     78.25000000    41.72000000    40.10000000
   H     76.05000000    45.20000000    40.68000000
   H     78.39000000    43.86000000    41.62000000
   H     78.18000000    44.54000000    40.05000000
   N     76.31000000    42.39000000    39.37000000
   C     76.07000000    41.19000000    38.59000000
   C     76.35000000    41.14000000    37.09000000
   O     76.22000000    40.12000000    36.41000000
   C     74.60000000    40.87000000    38.82000000
   C     73.61000000    41.78000000    38.10000000
   O     72.54000000    41.24000000    37.73000000
   O     73.84000000    42.91000000    37.63000000
   H     75.68000000    43.16000000    39.23000000
   H     76.62000000    40.32000000    38.95000000
   H     74.50000000    40.68000000    39.89000000
   H     74.45000000    39.86000000    38.43000000
   N     76.73000000    42.28000000    36.51000000
   C     76.96000000    42.55000000    35.10000000
   C     75.81000000    43.11000000    34.27000000
   O     75.87000000    43.21000000    33.05000000
   H     76.71000000    43.11000000    37.08000000
   H     77.43000000    41.69000000    34.63000000
   H     77.72000000    43.33000000    35.18000000
   N     74.71000000    43.46000000    34.93000000
   C     73.52000000    44.06000000    34.35000000
   C     72.96000000    45.32000000    35.00000000
   O     73.25000000    45.60000000    36.16000000
   C     72.50000000    42.93000000    34.26000000
   C     72.74000000    41.80000000    33.26000000
   C     72.71000000    42.20000000    31.79000000
   N     73.55000000    41.57000000    30.97000000
   O     71.85000000    42.94000000    31.31000000
   H     74.70000000    43.30000000    35.93000000
   H     73.72000000    44.34000000    33.32000000
   H     71.49000000    43.31000000    34.11000000
   H     72.44000000    42.55000000    35.28000000
   H     71.97000000    41.04000000    33.35000000
   H     73.67000000    41.27000000    33.50000000
   H     74.23000000    40.90000000    31.30000000
   H     73.36000000    41.49000000    29.98000000
   N     72.08000000    46.06000000    34.33000000
   C     71.54000000    47.26000000    34.94000000
   C     70.02000000    47.19000000    34.84000000
   O     69.48000000    47.35000000    33.75000000
   C     72.02000000    48.54000000    34.28000000
   C     71.62000000    49.69000000    35.20000000
   C     73.54000000    48.54000000    34.13000000
   H     71.74000000    45.85000000    33.40000000
   H     71.76000000    47.31000000    36.00000000
   H     71.60000000    48.70000000    33.29000000
   H     71.96000000    50.68000000    34.90000000
   H     70.53000000    49.68000000    35.12000000
   H     71.90000000    49.53000000    36.24000000
   H     73.89000000    49.51000000    33.79000000
   H     73.97000000    48.33000000    35.11000000
   H     74.01000000    47.78000000    33.50000000
   N     69.26000000    47.12000000    35.94000000
   C     67.81000000    47.22000000    35.95000000
   C     67.41000000    48.68000000    35.81000000
   O     68.16000000    49.57000000    36.18000000
   C     67.27000000    46.62000000    37.24000000
   C     65.76000000    46.44000000    37.13000000
   N     65.37000000    45.73000000    36.07000000
   O     64.98000000    47.01000000    37.89000000
   H     69.79000000    47.05000000    36.80000000
   H     67.43000000    46.66000000    35.09000000
   H     67.59000000    47.18000000    38.12000000
   H     67.64000000    45.63000000    37.52000000
   H     65.88000000    45.42000000    35.25000000
   H     64.38000000    45.58000000    35.97000000
   N     66.16000000    48.96000000    35.43000000
   C     65.52000000    50.26000000    35.47000000
   C     65.70000000    50.96000000    36.81000000
   O     65.95000000    52.16000000    36.81000000
   C     64.01000000    50.17000000    35.24000000
   C     63.42000000    51.56000000    35.27000000
   C     63.61000000    52.38000000    34.15000000
   C     62.55000000    51.98000000    36.28000000
   C     63.15000000    53.70000000    34.15000000
   C     61.98000000    53.25000000    36.18000000
   C     62.28000000    54.17000000    35.15000000
   O     61.66000000    55.38000000    35.06000000
   H     65.59000000    48.25000000    34.98000000
   H     65.93000000    50.94000000    34.72000000
   H     63.47000000    49.56000000    35.96000000
   H     63.86000000    49.84000000    34.22000000
   H     64.37000000    52.05000000    33.46000000
   H     62.27000000    51.30000000    37.08000000
   H     63.42000000    54.33000000    33.31000000
   H     61.26000000    53.52000000    36.94000000
   H     60.96000000    55.51000000    35.71000000
   N     65.50000000    50.22000000    37.90000000
   C     65.59000000    50.79000000    39.24000000
   C     67.02000000    51.20000000    39.55000000
   O     67.29000000    52.06000000    40.39000000
   C     65.01000000    49.76000000    40.21000000
   C     65.30000000    49.98000000    41.69000000
   C     64.53000000    49.04000000    42.61000000
   O     63.40000000    48.61000000    42.28000000
   O     65.05000000    48.69000000    43.70000000
   H     65.43000000    49.22000000    37.83000000
   H     65.03000000    51.72000000    39.25000000
   H     65.31000000    48.76000000    39.91000000
   H     63.94000000    49.75000000    40.05000000
   H     65.12000000    51.02000000    41.97000000
   H     66.34000000    49.73000000    41.90000000
   N     68.05000000    50.74000000    38.84000000
   C     69.45000000    51.11000000    38.81000000
   C     69.58000000    52.23000000    37.78000000
   O     70.35000000    53.14000000    38.08000000
   C     70.37000000    49.92000000    38.54000000
   C     70.25000000    48.79000000    39.56000000
   C     70.96000000    47.52000000    39.13000000
   O     72.21000000    47.51000000    39.13000000
   O     70.32000000    46.56000000    38.64000000
   H     67.84000000    50.09000000    38.09000000
   H     69.66000000    51.40000000    39.84000000
   H     71.41000000    50.22000000    38.45000000
   H     70.02000000    49.41000000    37.64000000
   H     69.21000000    48.56000000    39.80000000
   H     70.62000000    49.10000000    40.54000000
   N     68.93000000    52.41000000    36.63000000
   C     69.12000000    53.49000000    35.69000000
   H     70.15100000    53.48500000    35.33500000
   H     68.44400000    53.36000000    34.84500000
   H     68.91000000    54.44100000    36.18000000
   H     68.13000000    51.82000000    36.42000000
  Ca     72.56000000    44.94000000    38.52000000
   O     70.05000000    44.00000000    39.27000000
   H     69.20000000    43.56000000    39.33000000
   H     69.84000000    44.93000000    39.31000000
   O     70.76000000    43.86000000    36.66000000
   H     70.43000000    43.04000000    36.28000000
   H     70.14000000    44.05000000    37.37000000

Ca 1.00



