%chk=loop4.cluster70.chk
%nprocshared=48
%mem=10GB
%nosave
#b3lyp/svp scf=(tight,noincore) Test 
#IOP(5/87=12) Density=Current Pop=(MK,readradii) iop(6/33=2) iop(6/42=6)

loop4.cluster70 

   -3  1 
C         44.09677       50.62837       50.85395
C         44.13944       50.11784       52.26448
O         45.15663       49.58981       52.67825
H         43.88915       51.72036       50.86825
H         45.06915       50.46869       50.33924
H         43.29645       50.11357       50.28470
N         43.07077       50.30784       53.08923
C         43.03916       49.95815       54.50991
C         44.24762       50.46817       55.31703
O         44.49059       49.99243       56.41044
C         42.52541       48.51451       54.75366
C         43.47955       47.43509       54.34554
O         43.21430       46.67497       53.42818
O         44.63887       47.32884       55.00495
H         42.25067       50.80113       52.70371
H         42.20201       50.55503       54.93188
H         41.57515       48.39966       54.18739
H         42.28441       48.37767       55.83258
N         44.92434       51.57165       54.87885
C         45.94707       52.30952       55.62690
C         45.37215       52.79673       56.94268
O         46.02640       52.72451       57.97929
C         47.33839       51.61129       55.74702
C         48.43162       52.70756       55.95260
C         47.66716       50.76098       54.51656
C         49.87317       52.20270       55.93712
H         44.63208       52.00024       53.99189
H         46.10974       53.22043       55.00624
H         47.31683       50.90512       56.60338
H         48.25025       53.24241       56.90364
H         48.36212       53.46309       55.13789
H         47.82366       51.38388       53.61178
H         48.57240       50.16386       54.72849
H         46.87437       50.01486       54.33905
H         50.55371       53.05685       56.13627
H         50.02759       51.41720       56.70212
H         50.13701       51.80938       54.93177
N         44.11258       53.30328       56.95605
C         43.48379       53.90526       58.11692
C         42.24579       53.13245       58.57105
O         41.21078       53.26577       57.93258
C         43.12081       55.38408       57.79416
C         42.27080       55.65321       56.55443
O         41.89511       54.75581       55.81679
O         41.93246       56.92013       56.25632
H         43.58577       53.26754       56.07544
H         44.20209       53.94891       58.95564
H         44.06602       55.95041       57.65656
H         42.58727       55.80949       58.66990
N         42.21868       52.32974       59.68068
C         43.39883       51.79701       60.35532
C         43.76656       50.46650       59.71559
O         42.88574       49.85363       59.12870
H         41.31903       51.88108       59.91359
H         43.10480       51.55369       61.39889
H         44.21362       52.52719       60.48133
N         45.00762       49.89857       59.78339
C         46.17295       50.44413       60.47612
C         47.44568       49.88696       59.80820
O         47.48710       48.68529       59.57829
C         46.15036       49.97989       61.93650
C         47.31901       50.55690       62.67100
O         47.35783       51.86551       62.98218
O         48.26942       49.85051       62.92987
H         45.10563       48.96988       59.34165
H         46.14471       51.54455       60.44455
H         46.20805       48.86757       61.94858
H         45.21979       50.27817       62.46252
N         48.53426       50.64244       59.46537
C         48.77958       52.01275       59.88979
C         50.15334       52.13955       60.53019
O         50.76899       53.18864       60.40929
H         49.28523       50.18244       58.92574
H         48.04025       52.39245       60.61040
H         48.74492       52.67625       59.00850
N         50.69494       51.09997       61.23247
C         52.01205       51.15920       61.87695
C         53.14935       50.87942       60.90127
O         54.30218       50.84616       61.31659
C         52.02864       50.18089       63.07333
C         52.05653       48.68682       62.68282
C         51.68589       47.81958       63.85927
N         50.44040       47.88744       64.38309
O         52.49849       47.03791       64.32641
H         50.14528       50.23745       61.32579
H         52.14314       52.17135       62.32150
H         51.12019       50.41779       63.66789
H         52.90825       50.37934       63.72534
H         53.07522       48.43426       62.31197
H         51.33780       48.45536       61.87170
H         49.75132       48.52424       63.98211
H         50.15702       47.29622       65.17557
N         52.89503       50.67865       59.57974
C         53.91851       50.37731       58.59552
C         54.44763       48.96095       58.75556
O         53.69370       48.00597       58.61968
C         53.33834       50.65234       57.17006
C         54.09661       49.94403       56.04244
C         53.35566       52.16991       56.91474
H         51.92898       50.77266       59.24084
H         54.77663       51.07588       58.71962
H         52.28703       50.28729       57.10669
H         55.18515       50.12511       56.09881
H         53.89513       48.84947       56.09107
H         53.74064       50.31942       55.06297
H         52.85981       52.40978       55.95223
H         52.83813       52.72080       57.72826
H         54.40691       52.53088       56.85798
N         55.78983       48.77568       58.93076
C         56.46748       47.49474       58.79052
C         56.26846       46.97046       57.37641
O         56.66945       47.66882       56.45508
C         56.18183       46.49813       59.93621
C         56.67884       47.00488       61.27056
N         57.99810       47.25608       61.46868
O         55.88900       47.16228       62.18861
H         56.38961       49.60692       59.04369
H         57.56031       47.69047       58.84204
H         56.74134       45.55717       59.73717
H         55.10033       46.25768       59.98736
H         58.68637       47.10581       60.71610
H         58.33526       47.58806       62.38462
N         55.70393       45.75547       57.10769
C         55.83145       45.14058       55.78514
C         54.55298       45.14505       54.97558
O         53.46803       45.08062       55.53499
C         56.30454       43.67423       55.95592
C         57.54003       43.63548       56.81590
C         57.46058       43.19006       58.14710
C         58.75960       44.11097       56.31648
C         58.58015       43.26348       58.97892
C         59.88137       44.16904       57.14530
C         59.78981       43.76290       58.48516
O         60.85420       43.86237       59.30566
H         55.32426       45.18260       57.87629
H         56.60412       45.67753       55.19316
H         56.49243       43.17813       54.97729
H         55.48482       43.11118       56.45730
H         56.52244       42.82852       58.55177
H         58.83378       44.44753       55.29007
H         58.50110       42.95347       60.01357
H         60.81524       44.54776       56.75179
H         61.69048       44.24567       59.00495
N         54.65433       45.05498       53.61330
C         53.56270       44.66543       52.72145
C         52.41678       45.66619       52.60504
O         51.41354       45.35618       51.97380
C         53.21007       43.20413       53.05188
C         52.30970       42.49983       52.03360
C         52.27878       41.03128       52.34458
O         51.13432       40.44824       52.74398
O         53.29917       40.36482       52.25553
H         55.59229       45.12120       53.19217
H         53.98538       44.62767       51.69373
H         52.77247       43.10938       54.06706
H         54.18703       42.66617       53.04475
H         52.69562       42.63353       50.99785
H         51.28394       42.91490       52.09112
N         52.57401       46.94661       53.02999
C         51.62883       48.01826       52.73782
C         52.31166       48.98700       51.78055
O         51.75461       49.28415       50.73402
C         51.19577       48.70268       54.04548
C         50.56782       47.72071       55.05990
C         49.22359       47.18852       54.63624
O         48.62639       46.19890       55.32781
O         48.64833       47.65998       53.66896
H         53.44501       47.19806       53.51706
H         50.71122       47.64096       52.23148
H         50.50877       49.54600       53.82786
H         52.08843       49.12370       54.51065
H         50.43889       48.23585       56.03707
H         51.26956       46.87685       55.22065
N         53.56912       49.45368       52.05224
C         54.33744       50.26038       51.12527
H         55.27219       49.71487       50.86647
H         53.79421       50.47319       50.18179
H         54.61383       51.21665       51.61306
H         54.03221       49.18786       52.92987
Ca        46.42660       45.96017       54.87595
O         46.78541       48.04261       56.60730
H         47.22293       48.70051       57.19119
H         45.84237       48.05551       56.89719
O         44.36887       44.04050       54.41061
H         43.67889       44.50519       54.94724
H         44.18654       43.07850       54.54886
O         47.27724       43.00946       55.08637
H         48.01974       42.53510       54.63636
H         47.05016       42.43476       55.85957
O         46.49226       44.80786       57.51354
H         46.14219       45.20346       58.34969
H         46.20314       43.86227       57.54649
O         46.30147       46.57204       52.00439
H         47.05263       46.66695       51.36859
H         46.17296       47.48461       52.35648

Ca 1.70



