%chk=loop3.cluster2.chk
%nprocshared=48
%mem=10GB
%nosave
#b3lyp/svp scf=(tight,noincore) Test 
#IOP(5/87=12) Density=Current Pop=(MK,readradii) iop(6/33=2) iop(6/42=6)

loop3.cluster2 

   0  1 
C         47.03129       52.48481       32.56217
C         48.39413       52.41389       33.17524
O         48.81515       51.34531       33.59105
H         46.39100       53.18128       33.14583
H         47.12459       52.86131       31.52253
H         46.55447       51.48315       32.54767
N         49.13218       53.54803       33.29052
C         50.45025       53.59538       33.89950
C         50.27413       54.09867       35.31854
O         50.62850       55.22158       35.64420
C         51.39400       54.41370       32.99577
C         52.68008       54.72879       33.70050
O         53.56436       53.77364       34.04296
O         52.87830       55.87551       34.05418
H         48.70966       54.44019       32.98735
H         50.90479       52.59368       34.01777
H         50.89744       55.38123       32.77395
H         51.56724       53.89258       32.02532
N         49.72232       53.24808       36.22788
C         49.56076       53.53553       37.64999
C         50.86597       53.37296       38.42571
O         50.87841       53.62280       39.62370
C         48.51773       52.56092       38.22247
C         47.16272       52.73920       37.51840
C         46.14832       51.71618       38.02047
C         44.80064       51.90336       37.31448
N         43.84590       50.88007       37.73550
H         49.43761       52.31703       35.89150
H         49.17952       54.57341       37.78051
H         48.38550       52.73424       39.31221
H         48.88331       51.51873       38.07433
H         47.27073       52.59674       36.42107
H         46.79102       53.77151       37.69857
H         46.01207       51.83857       39.11708
H         46.53492       50.69365       37.81586
H         44.93456       51.84027       36.21040
H         44.40166       52.91227       37.56105
H         43.78206       50.84594       38.77869
H         42.90447       51.11005       37.34391
H         44.14593       49.94679       37.36995
N         52.01066       52.98509       37.79443
C         53.31626       52.97357       38.43638
C         54.02293       54.31194       38.20043
O         55.10130       54.52221       38.73772
C         54.12487       51.72673       37.99517
C         54.33098       51.59311       36.50508
O         53.39263       51.33533       35.76654
O         55.56908       51.68152       35.99080
H         51.98627       52.85454       36.78177
H         53.20045       52.90410       39.54105
H         53.60665       50.80640       38.34690
H         55.11687       51.75936       38.49300
N         53.41727       55.29372       37.46471
C         53.89395       56.65564       37.33670
C         55.26551       56.74550       36.74770
O         56.06006       57.53582       37.23719
H         52.53333       55.09550       36.99680
H         53.87162       57.16066       38.32708
H         53.18940       57.20191       36.67125
N         55.63083       55.94190       35.70888
C         56.97963       55.94294       35.16542
C         57.02252       56.34901       33.68829
O         58.10824       56.46121       33.13669
C         57.63826       54.57843       35.48281
C         57.75393       53.65037       34.30360
N         58.97914       53.32085       33.83115
O         56.75111       53.21393       33.76098
H         54.95693       55.25963       35.34469
H         57.58001       56.70710       35.70332
H         57.10866       54.07122       36.32341
H         58.65969       54.78524       35.86152
H         59.82925       53.70059       34.27562
H         59.07966       52.70559       33.01276
N         55.87450       56.62307       33.00112
C         55.85615       57.19286       31.66919
C         55.77911       56.19792       30.53518
O         55.71211       56.65380       29.40208
H         54.98472       56.60007       33.49679
H         56.71949       57.87807       31.53104
H         54.93978       57.81782       31.58745
N         55.79932       54.84120       30.72548
C         55.76399       53.91881       29.59082
C         54.66362       52.82778       29.75292
O         55.07405       51.91231       30.72434
C         57.15482       53.28211       29.37915
C         58.25850       54.28218       29.10403
C         58.59604       54.62145       27.78186
C         59.00269       54.83089       30.16330
C         59.67072       55.48062       27.52412
C         60.08028       55.68594       29.90218
C         60.42393       56.00396       28.57992
O         61.48229       56.79804       28.31428
H         55.89699       54.45665       31.67533
H         55.52651       54.47236       28.65782
H         57.09839       52.58659       28.51402
H         57.44655       52.65961       30.25065
H         58.03703       54.20891       26.95156
H         58.76155       54.57945       31.18734
H         59.93132       55.72526       26.50157
H         60.65758       56.08877       30.72526
H         62.05600       57.13673       29.01687
N         54.53243       52.10181       28.48236
C         53.77061       50.84008       28.46139
C         54.49194       49.96860       27.45834
O         54.63390       50.36437       26.30718
C         52.26459       51.00848       28.08654
C         51.56204       52.07006       28.96750
C         51.54453       49.64600       28.22564
C         50.12644       52.36441       28.52193
H         54.53530       52.66288       27.59948
H         53.80278       50.35773       29.46352
H         52.20674       51.35057       27.03025
H         52.11469       53.02561       28.87880
H         51.56320       51.76383       30.03532
H         52.03088       48.86858       27.60483
H         51.56121       49.31380       29.28647
H         50.48733       49.69588       27.89946
H         50.11275       52.63516       27.44424
H         49.45369       51.49907       28.69075
H         49.72701       53.21985       29.10528
N         55.00782       48.77399       27.83623
C         55.74804       47.91032       26.93487
C         54.81143       46.97548       26.23192
O         53.61583       47.03513       26.46181
C         56.83065       47.13681       27.72051
O         56.26723       46.37631       28.75661
H         54.78922       48.43025       28.77439
H         56.25645       48.50961       26.14794
H         57.58824       47.84683       28.12328
H         57.38715       46.44483       27.05712
H         56.32337       46.92625       29.58036
N         55.27781       46.07881       25.33539
C         54.42992       45.08851       24.69506
C         53.80814       44.17131       25.74659
O         52.61649       43.91835       25.70780
C         55.27672       44.27148       23.71869
H         56.28922       46.08861       25.11816
H         53.63351       45.59923       24.10468
H         56.02878       43.66540       24.26777
H         54.63341       43.60490       23.10979
H         55.81731       44.96022       23.03199
N         54.59669       43.67956       26.74683
C         54.11417       42.80430       27.81618
C         53.00073       43.44324       28.63196
O         51.97182       42.80949       28.83440
C         55.29335       42.44138       28.72959
H         55.58940       43.95250       26.75559
H         53.74269       41.85379       27.37592
H         55.72987       43.34910       29.19951
H         54.96931       41.73819       29.52504
H         56.08510       41.94258       28.12833
N         53.13288       44.70345       29.12818
C         52.08306       45.37918       29.89368
C         50.82047       45.51101       29.05626
O         49.75868       45.08910       29.48914
C         52.57888       46.76455       30.34607
C         53.68241       46.62974       31.40533
C         54.21358       47.97213       31.77927
O         55.04506       48.50703       31.07679
O         53.77307       48.59889       32.88286
H         54.00401       45.21524       28.91771
H         51.83841       44.79924       30.81174
H         51.74462       47.33699       30.81039
H         52.93710       47.33054       29.46235
H         54.52636       45.99241       31.06299
H         53.24689       46.15195       32.30772
N         50.88807       46.05668       27.81710
C         49.75874       46.14509       26.92293
H         48.97097       46.79154       27.35814
H         50.09256       46.58632       25.95702
H         49.36223       45.12860       26.71829
H         51.78658       46.38331       27.48373
Ca        54.02414       52.09553       32.69040
O         55.94205       49.24383       34.64139
H         55.63840       48.49408       35.21196
H         56.61570       48.84309       34.03776
O         57.00647       50.49973       31.91939
H         56.58292       50.22687       31.07223
H         57.94439       50.63430       31.64762
O         51.67251       50.68814       32.74677
H         51.13164       50.23590       33.44024
H         51.35248       50.32113       31.88772

Ca 1.70



