%chk=loop3.cluster159.chk
%nprocshared=48
%mem=10GB
%nosave
#b3lyp/svp scf=(tight,noincore) Test 
#IOP(5/87=12) Density=Current Pop=(MK,readradii) iop(6/33=2) iop(6/42=6)

loop3.cluster159 

   0  1 
C         81.95336       76.14547       25.53078
C         83.44089       76.18951       25.70864
O         83.98808       75.38413       26.44298
H         81.50958       77.10020       25.88395
H         81.71729       76.01656       24.45294
H         81.50708       75.30338       26.09949
N         84.16741       77.10018       25.01404
C         85.61882       77.20157       25.10314
C         86.10828       77.77584       26.45944
O         86.40068       76.91011       27.53521
C         86.20457       78.01627       23.90278
C         85.66102       79.38964       23.53090
O         86.22833       80.02971       22.66043
O         84.52883       79.88793       24.06576
H         83.66087       77.70364       24.35261
H         86.07421       76.19354       24.98868
H         86.07710       77.40555       22.98365
H         87.29816       78.11371       24.08088
N         85.47512       79.02242       26.87822
C         86.09722       79.69749       28.03143
C         87.61310       79.48015       28.18606
O         88.40823       80.04983       27.45137
C         85.66114       81.17386       28.01850
C         86.00877       81.89624       29.30990
C         85.30428       83.25265       29.37531
C         85.69503       83.96685       30.67023
N         85.18389       85.33397       30.69665
H         85.49200       79.67460       26.08220
H         85.62068       79.25213       28.91839
H         84.55457       81.17695       27.90237
H         86.09563       81.71272       27.14287
H         87.11208       82.02982       29.35884
H         85.67400       81.28661       30.17520
H         84.19762       83.11369       29.34532
H         85.60556       83.86364       28.49736
H         86.80359       84.00209       30.73820
H         85.30490       83.39644       31.54456
H         85.53487       85.85718       29.86134
H         84.13863       85.33574       30.70584
H         85.54042       85.80615       31.55841
N         88.04576       78.62653       29.16435
C         89.44458       78.32502       29.49210
C         90.22664       77.58012       28.41071
O         91.41677       77.35971       28.59263
C         89.47493       77.47683       30.79673
C         88.89446       76.08214       30.66430
O         89.60434       75.01569       31.07848
O         87.76756       75.91447       30.23210
H         87.31816       78.19233       29.74642
H         89.94911       79.29342       29.70320
H         88.88890       78.02077       31.56646
H         90.51705       77.38163       31.16911
N         89.61961       77.13724       27.27873
C         90.27168       76.33227       26.26744
C         90.38775       77.11355       24.98697
O         90.35710       78.33543       25.03512
H         88.64008       77.35786       27.11593
H         89.64488       75.43866       26.11729
H         91.28106       75.97652       26.56681
N         90.57567       76.50606       23.78389
C         90.50634       75.05883       23.57924
C         89.03889       74.59141       23.74582
O         88.15814       75.38795       23.45977
C         90.95628       74.77538       22.12869
C         91.02084       73.31407       21.78424
N         90.08663       72.76158       20.97591
O         91.92112       72.62282       22.23722
H         90.74306       77.11478       22.96706
H         91.22160       74.58501       24.27927
H         91.96273       75.21346       21.94461
H         90.24550       75.29086       21.44653
H         89.30233       73.32745       20.61937
H         90.12948       71.76060       20.73653
N         88.66980       73.31530       24.09518
C         89.60075       72.24814       24.41938
C         89.15612       71.38552       25.56530
O         88.01885       71.46832       26.00752
H         87.66146       73.08550       24.06993
H         90.57335       72.66357       24.72742
H         89.73465       71.58105       23.54653
N         90.03016       70.50236       26.10099
C         89.76582       69.75118       27.31406
C         90.90425       69.95748       28.29437
O         92.03626       70.18295       27.87375
C         89.63786       68.25389       26.98057
C         88.41520       67.96382       26.13728
C         87.12561       68.18375       26.65700
C         88.55166       67.45768       24.83396
C         85.99441       67.90293       25.88397
C         87.41807       67.17937       24.06257
C         86.13569       67.39987       24.58667
O         85.03662       67.12787       23.85336
H         90.95316       70.39389       25.64734
H         88.82171       70.08592       27.80449
H         89.55690       67.65492       27.91379
H         90.56599       67.93614       26.45503
H         86.99709       68.56453       27.66216
H         89.53388       67.27999       24.41512
H         85.00650       68.07239       26.29490
H         87.53604       66.79024       23.05905
H         85.09855       66.76898       22.95636
N         90.68949       69.80451       29.62621
C         91.76337       69.77522       30.62009
C         91.86028       68.38813       31.26642
O         92.87372       68.08559       31.87649
C         91.58187       70.92215       31.65802
C         90.21194       70.79584       32.38307
C         92.76213       70.99939       32.64539
C         89.98004       71.79664       33.50857
H         89.71529       69.65098       29.92960
H         92.73909       69.93467       30.10599
H         91.59788       71.87605       31.08442
H         90.09951       69.77935       32.81763
H         89.40271       70.95200       31.64054
H         93.73242       70.95734       32.10557
H         92.73427       71.97129       33.18397
H         92.72362       70.18154       33.39414
H         88.93990       71.67719       33.88110
H         90.66819       71.58915       34.35490
H         90.12106       72.83595       33.14949
N         90.83228       67.49251       31.14601
C         90.87320       66.12912       31.64376
C         89.81821       65.87318       32.71342
O         89.87211       64.81364       33.32767
C         90.58295       65.20476       30.44739
O         89.31397       65.51672       29.92531
H         89.97851       67.76450       30.66034
H         91.87348       65.89771       32.07480
H         90.60082       64.14074       30.76703
H         91.35602       65.37448       29.66459
H         89.15298       64.91075       29.15950
N         88.77287       66.73447       32.93060
C         87.69482       66.40931       33.85471
C         86.50461       67.34489       33.74668
O         86.64240       68.54753       33.92968
C         88.15056       66.44439       35.31532
H         88.68672       67.59139       32.36878
H         87.34683       65.37543       33.63057
H         88.95030       65.70781       35.51678
H         88.50126       67.46211       35.58933
H         87.28188       66.18704       35.96444
N         85.26889       66.80341       33.57017
C         84.01083       67.48728       33.82937
C         83.79914       68.77243       33.05270
O         83.26296       69.73756       33.58061
C         83.81104       67.61546       35.33875
H         85.20249       65.78824       33.39669
H         83.21612       66.79367       33.47486
H         82.77198       67.92663       35.56996
H         83.98445       66.61825       35.80252
H         84.53319       68.33600       35.77434
N         84.08920       68.77940       31.73316
C         83.65655       69.81023       30.80439
C         82.37223       69.31848       30.15873
O         81.42305       70.08529       30.06267
C         84.77052       70.02877       29.77003
C         86.03916       70.65289       30.38413
C         85.83586       72.12842       30.59957
O         86.11381       72.92667       29.54809
O         85.19885       72.54773       31.55410
H         84.51801       67.93029       31.33966
H         83.42073       70.77588       31.30696
H         84.41593       70.68374       28.94215
H         85.02550       69.04491       29.32133
H         86.82855       70.56592       29.60577
H         86.41847       70.11286       31.27993
N         82.23680       68.00472       29.80618
C         80.99323       67.42973       29.34396
H         80.19061       68.18395       29.21587
H         81.16780       66.91115       28.38035
H         80.65121       66.68133       30.09258
H         83.02533       67.35723       29.93199
Ca        85.75483       74.95212       28.55211
O         83.12877       74.30891       29.12001
H         82.40835       73.70856       28.80733
H         83.15691       74.19050       30.10231
O         84.56819       76.88174       30.09539
H         84.30682       77.80072       29.84978
H         84.00911       76.66851       30.88161
O         85.21074       72.69910       27.05516
H         84.39799       72.18578       26.83404
H         85.90146       72.34708       26.44919
O         88.16500       74.24412       27.58850
H         88.34917       73.35845       27.21386
H         88.89929       74.37116       28.23487

Ca 1.70



