%chk=loop1.cluster96.chk
%nprocshared=48
%mem=10GB
%nosave
#b3lyp/svp scf=(tight,noincore) Test 
#IOP(5/87=12) Density=Current Pop=(MK,readradii) iop(6/33=2) iop(6/42=6)

loop1.cluster96 

   0  1 
C         81.97823      109.15508       17.60270
C         82.54672      110.53735       17.65487
O         82.84422      111.08042       16.61201
H         81.02949      109.16791       17.02701
H         82.70621      108.48723       17.09515
H         81.78242      108.75981       18.62025
N         82.70950      111.17803       18.84467
C         83.29038      112.52095       18.97278
C         84.80869      112.55852       18.78285
O         85.37270      113.64210       18.81017
C         82.89162      113.12989       20.33993
C         83.23060      112.26382       21.52780
O         82.36333      111.57571       22.04564
O         84.45744      112.31005       22.07781
H         82.36785      110.69787       19.68737
H         82.83530      113.18594       18.21031
H         81.78770      113.25520       20.32124
H         83.32029      114.14590       20.48371
N         85.54021      111.41787       18.64438
C         87.00342      111.40819       18.59058
C         87.55238      111.93497       17.26085
O         87.24572      111.33200       16.24357
C         87.47453      109.94693       18.80110
C         88.97604      109.77132       18.58354
C         89.45715      108.36364       18.89145
C         90.92655      108.26246       18.46715
N         91.49223      106.96036       18.79287
H         85.04880      110.51296       18.66667
H         87.39972      111.98419       19.44827
H         86.95525      109.27466       18.08729
H         87.19225      109.63433       19.83015
H         89.54166      110.45013       19.23538
H         89.20636      110.00118       17.52132
H         88.85763      107.61853       18.32389
H         89.33967      108.17078       19.98096
H         91.52822      109.05898       18.96122
H         90.98236      108.41953       17.36878
H         91.59668      106.87481       19.82950
H         90.88090      106.19591       18.42588
H         92.43456      106.88982       18.34555
N         88.43539      112.98403       17.15645
C         88.79342      113.91084       18.23100
C         89.13184      115.31360       17.68174
O         90.15901      115.85935       18.06413
C         89.98517      113.37425       19.07923
C         91.24185      113.07796       18.28036
O         92.35836      112.68380       18.92075
O         91.26399      113.20319       17.06523
H         88.81555      113.18369       16.21889
H         87.91310      114.06845       18.88589
H         89.69365      112.47501       19.63387
H         90.23906      114.12536       19.85851
N         88.33181      116.00221       16.81230
C         87.11729      115.46934       16.20865
C         86.44931      116.44080       15.24769
O         86.90501      117.56729       15.11152
H         88.64426      116.94804       16.54727
H         86.39884      115.17931       16.99920
H         87.38537      114.59845       15.58744
N         85.37047      116.07677       14.49436
C         84.72291      114.77029       14.56064
C         83.24023      114.93175       14.84767
O         82.62192      115.87615       14.37697
C         84.87687      114.00435       13.23163
C         86.29039      113.57408       12.93080
O         86.90033      112.66491       13.73302
O         86.85360      113.98743       11.92920
H         84.99410      116.76694       13.82406
H         85.15817      114.11941       15.34443
H         84.46226      114.61613       12.40163
H         84.29056      113.06503       13.28884
N         82.59976      113.97014       15.56441
C         81.15356      113.88312       15.72629
C         80.56360      113.14172       14.54087
O         80.04109      112.04880       14.71120
H         83.17226      113.20631       15.92846
H         80.70619      114.88166       15.91551
H         80.95042      113.26336       16.62841
N         80.68083      113.65882       13.28919
C         80.38863      112.90298       12.07315
C         81.28344      111.67767       11.96037
O         82.48786      111.79826       12.11968
C         80.59130      113.77301       10.79555
C         81.97458      114.44617       10.65812
O         79.59791      114.76074       10.75071
H         81.04268      114.61039       13.19940
H         79.32280      112.58031       12.07305
H         80.45541      113.08943        9.92033
H         79.46579      114.97822        9.78870
H         82.78819      113.70215       10.55155
H         81.98088      115.08753        9.75285
H         82.21164      115.11358       11.50891
N         80.75890      110.47979       11.57113
C         81.60650      109.35762       11.16317
C         80.93551      108.57977       10.04291
O         79.77315      108.22153       10.17620
C         81.98430      108.42079       12.35781
C         83.09124      107.43006       11.91462
C         80.76662      107.65760       12.89873
C         83.64055      106.48867       12.98060
H         79.74910      110.44076       11.36538
H         82.55962      109.76942       10.75902
H         82.40353      109.05582       13.16391
H         83.94566      108.01293       11.50736
H         82.67120      106.77509       11.14710
H         79.95543      108.36499       13.16172
H         80.38969      106.93405       12.14323
H         81.04302      107.07736       13.79988
H         84.53403      105.96718       12.56822
H         83.93896      107.04682       13.88885
H         82.89095      105.70887       13.23169
N         81.63685      108.23372        8.92746
C         81.07989      107.35660        7.89526
C         81.85197      106.02859        7.80348
O         81.48293      105.16891        7.01736
C         80.98300      108.13876        6.57011
C         82.34525      108.33410        5.90641
O         80.41079      109.40324        6.80592
H         82.60965      108.56432        8.83041
H         80.03886      107.07620        8.16425
H         80.34520      107.58065        5.84913
H         79.50837      109.25702        7.19411
H         83.06799      108.81673        6.59460
H         82.75062      107.35176        5.58385
H         82.22753      108.97324        5.00723
N         82.90311      105.79254        8.64269
C         83.67781      104.57093        8.77509
C         84.76346      104.52566        7.74383
O         84.69050      105.22275        6.74020
C         82.86985      103.25452        8.95781
C         81.80455      103.42348       10.05157
O         83.76105      102.22271        9.31722
H         83.21818      106.54644        9.24491
H         84.23974      104.70963        9.72811
H         82.37396      102.97744        8.00256
H         83.24670      101.44493        9.65585
H         82.28004      103.73395       11.00602
H         81.05449      104.18107        9.74863
H         81.26748      102.46425       10.21307
N         85.85657      103.75645        7.98325
C         86.99618      103.69990        7.10231
C         88.37523      104.03482        7.71309
O         89.23887      104.26906        6.87793
C         87.01030      102.33086        6.37864
C         85.93555      102.29018        5.27599
C         85.93799      100.97139        4.49331
C         84.89825      101.03601        3.36126
N         84.80054       99.76782        2.63986
H         85.84770      103.16559        8.80546
H         86.88221      104.47563        6.31175
H         86.85871      101.50747        7.11223
H         87.98830      102.17493        5.87906
H         86.14545      103.11567        4.55940
H         84.92671      102.45069        5.71495
H         85.68854      100.14105        5.18872
H         86.94494      100.78474        4.05795
H         85.17169      101.84543        2.64561
H         83.90468      101.27810        3.79712
H         83.99928       99.82385        1.96949
H         85.67903       99.58501        2.10317
H         84.62032       98.98422        3.30841
N         88.77822      104.08394        9.03947
C         88.08763      103.81996       10.31230
C         87.41018      102.46960       10.40712
O         86.45390      102.33130       11.15969
C         87.27484      105.03283       10.83639
C         88.20950      106.22175       11.15760
C         87.48393      107.51742       11.38515
O         87.65685      108.20203       12.55363
O         86.83032      107.98910       10.46944
H         89.77842      104.30944        9.16397
H         88.89365      103.71299       11.07520
H         86.75465      104.77478       11.78775
H         86.51672      105.30632       10.08053
H         88.89309      106.40064       10.30352
H         88.82928      105.97688       12.05062
N         87.86759      101.40902        9.68953
C         87.21895      100.11859        9.75754
H         86.18213      100.19370        9.36234
H         87.78183       99.38342        9.14631
H         87.18856       99.76435       10.80948
H         88.68786      101.51820        9.07564
Ca        87.31014      110.42978       13.19861
O         86.95176      108.47806       15.63200
H         86.04880      108.46331       16.03860
H         87.32965      107.58533       15.83020
O         84.72533      110.34068       14.35875
H         84.74005      110.74009       15.26115
H         83.90490      110.69680       13.93963
O         88.75434      111.29242       11.20217
H         88.46006      111.18802       10.26442
H         89.73501      111.16860       11.19635
O         89.93119      109.83498       14.92260
H         90.62123      110.53981       15.00733
H         90.39093      109.00296       15.19775
O         85.17093      110.50845       11.52363
H         85.69849      109.68204       11.45611
H         84.95528      110.72533       10.58714

Ca 1.70



