%chk=loop3.cluster169.chk
%nprocshared=48
%mem=10GB
%nosave
#b3lyp/svp scf=(tight,noincore) Test 
#IOP(5/87=12) Density=Current Pop=(MK,readradii) iop(6/33=2) iop(6/42=6)

loop3.cluster169 

   0  1 
C         49.72975       63.12145       30.94571
C         49.57634       64.60131       31.10542
O         49.60059       65.34063       30.13281
H         50.65447       62.82483       31.48954
H         48.86923       62.59941       31.41488
H         49.82657       62.82420       29.88398
N         49.46735       65.09450       32.35962
C         49.46298       66.51288       32.68374
C         48.16926       67.13166       32.18242
O         48.20039       68.14727       31.49704
C         49.68741       66.68065       34.21086
C         50.97673       66.00621       34.66763
O         52.00068       66.74622       35.12805
O         51.09436       64.78995       34.63489
H         49.41369       64.41146       33.12548
H         50.33308       67.01647       32.20434
H         48.84012       66.26019       34.79386
H         49.76439       67.76542       34.43930
N         46.98634       66.50564       32.44013
C         45.68773       66.92108       31.90803
C         45.37051       68.36137       32.28500
O         44.82871       69.09974       31.48053
C         44.60242       65.94000       32.42215
C         44.33807       66.13425       33.92372
C         43.45306       65.05876       34.54707
C         42.96353       65.48958       35.94292
N         44.05870       65.85124       36.84809
H         47.02431       65.65052       33.01690
H         45.71972       66.84182       30.79688
H         44.95057       64.90244       32.21498
H         43.64652       66.08851       31.87513
H         43.84053       67.11963       34.04527
H         45.29756       66.13116       34.48179
H         44.02889       64.10843       34.60809
H         42.55495       64.88829       33.91650
H         42.37148       64.66045       36.38616
H         42.28918       66.36691       35.82300
H         44.53690       66.71562       36.51424
H         43.67192       66.05759       37.79552
H         44.75192       65.07449       36.92216
N         45.78965       68.82383       33.49635
C         45.68782       70.22038       33.89834
C         46.75407       70.54306       34.94321
O         47.52188       69.67755       35.33062
C         44.25641       70.54754       34.35331
C         43.76155       69.81194       35.55839
O         44.50907       69.14888       36.26090
O         42.48382       70.00604       35.91682
H         46.28684       68.17255       34.10991
H         45.92701       70.86391       33.02309
H         43.55686       70.34792       33.51695
H         44.17246       71.62750       34.60348
N         46.89654       71.81895       35.38482
C         47.97655       72.19745       36.27604
C         47.83360       71.64072       37.66658
O         46.72796       71.54924       38.17506
H         46.27402       72.55440       35.02769
H         47.97360       73.30038       36.38028
H         48.95248       71.90503       35.82979
N         48.95311       71.36198       38.38740
C         48.92426       70.98448       39.79530
C         49.67914       71.99458       40.66639
O         49.49544       71.95954       41.87178
C         49.55144       69.58691       39.92808
C         48.76046       68.56473       39.15185
N         47.53424       68.18178       39.57688
O         49.23200       68.07566       38.13590
H         49.86643       71.43577       37.91691
H         47.87735       70.95801       40.17473
H         49.61497       69.25617       40.98470
H         50.58556       69.64485       39.51949
H         47.14074       68.56382       40.44939
H         46.99252       67.48361       39.04633
N         50.53694       72.92246       40.12951
C         51.32831       73.86720       40.91146
C         52.33505       73.17688       41.80821
O         53.03823       72.28415       41.35595
H         50.66145       72.97171       39.11325
H         50.65759       74.53234       41.49827
H         51.90230       74.50099       40.20451
N         52.42610       73.54069       43.12233
C         53.21689       72.86367       44.15760
C         52.58722       71.54513       44.60047
O         52.98554       71.01562       45.62485
C         54.70368       72.68509       43.79008
C         55.56979       72.65065       45.02902
C         56.01077       73.86641       45.57577
C         55.93440       71.44334       45.65175
C         56.80989       73.88233       46.71764
C         56.72934       71.46254       46.80691
C         57.17309       72.68067       47.33829
O         57.94828       72.68927       48.44172
H         51.87145       74.35453       43.43032
H         53.15035       73.54816       45.03618
H         55.04269       73.55242       43.18480
H         54.84853       71.78375       43.15369
H         55.73522       74.80382       45.10883
H         55.59897       70.49425       45.25207
H         57.14528       74.83010       47.11915
H         57.00326       70.53223       47.28920
H         58.28282       73.51630       48.81906
N         51.59637       70.96968       43.85712
C         50.77861       69.82117       44.18911
C         49.72248       70.21828       45.22157
O         48.54494       70.19092       44.88915
C         51.58705       68.53002       44.45444
C         52.71998       68.26763       43.41261
C         50.61850       67.33296       44.48218
C         52.30522       68.21371       41.93550
H         51.37887       71.37401       42.96185
H         50.19385       69.60170       43.26550
H         52.08469       68.59854       45.44454
H         53.18643       67.29385       43.67355
H         53.51544       69.03909       43.50357
H         50.03981       67.26552       43.53513
H         51.17376       66.38312       44.62112
H         49.89305       67.43711       45.31130
H         52.05487       69.22762       41.56052
H         53.16136       67.83601       41.33422
H         51.45133       67.52971       41.76255
N         50.06592       70.68954       46.45659
C         49.08909       71.26043       47.38018
C         48.21133       70.20618       48.04315
O         47.28704       70.57890       48.75338
C         49.81173       72.12580       48.42382
O         50.55808       73.11557       47.75981
H         51.05070       70.73656       46.71867
H         48.43341       71.95597       46.80509
H         50.47454       71.47113       49.03532
H         49.07825       72.62782       49.09084
H         51.39167       73.25742       48.27870
N         48.40094       68.87063       47.80219
C         47.48334       67.82483       48.24334
C         46.05741       68.17677       47.84292
O         45.13860       68.01613       48.63478
C         47.65336       67.53334       49.73958
H         49.17707       68.57477       47.19930
H         47.76172       66.89419       47.70096
H         48.69540       67.19781       49.93195
H         47.45139       68.43613       50.35221
H         46.96821       66.71762       50.05550
N         45.83018       68.74449       46.62427
C         44.54106       69.26782       46.20457
C         44.08711       68.56629       44.94386
O         44.84621       68.47666       43.98890
C         44.66307       70.77771       45.98262
H         46.62765       68.88011       45.98580
H         43.76856       69.13101       46.99265
H         44.91475       71.27426       46.94589
H         45.45772       71.01403       45.24428
H         43.69655       71.19303       45.62391
N         42.82435       68.05603       44.88425
C         42.27333       67.31110       43.75760
C         42.90075       65.93459       43.62263
O         42.93699       65.39677       42.52334
C         42.29290       68.09741       42.42881
C         41.57078       69.43976       42.53591
C         41.51875       70.08519       41.18964
O         42.63672       70.61080       40.65320
O         40.46846       70.11743       40.56785
H         42.20160       68.20361       45.69264
H         41.20523       67.11540       44.00172
H         41.75470       67.48595       41.67032
H         43.33101       68.24692       42.06317
H         42.07632       70.12710       43.24921
H         40.53669       69.25247       42.89395
N         43.32893       65.26123       44.72871
C         43.86367       63.91596       44.66957
H         44.88887       63.90752       45.09318
H         43.21701       63.24497       45.27244
H         43.90987       63.51702       43.63439
H         43.26546       65.70953       45.65444
Ca        41.84494       70.18198       38.04254
O         38.84191       70.09220       37.63145
H         38.52638       70.38712       36.74057
H         38.04826       70.17393       38.21749
O         41.68496       67.47935       38.44663
H         41.10475       67.05441       37.76776
H         41.36452       67.12232       39.31030
O         40.89202       72.29399       35.97654
H         41.35900       72.84411       35.29986
H         39.94461       72.57544       35.92350
O         40.49858       72.89968       38.95290
H         40.26656       73.43014       38.15138
H         40.09477       73.40717       39.69966
O         43.71032       72.44583       37.72898
H         44.26673       72.93779       37.07490
H         44.35641       71.95904       38.29757

Ca 1.70



