%chk=loop1.cluster32.chk
%nprocshared=48
%mem=10GB
%nosave
#b3lyp/svp scf=(tight,noincore) Test 
#IOP(5/87=12) Density=Current Pop=(MK,readradii) iop(6/33=2) iop(6/42=6)

loop1.cluster32 

   0  1 
C         91.95437      110.36056       63.87069
C         91.16581      110.63360       62.62643
O         90.07313      110.10389       62.47805
H         92.91066      110.92633       63.86820
H         91.36994      110.66571       64.76306
H         92.18682      109.27787       63.92496
N         91.66710      111.46938       61.67755
C         90.95617      111.77234       60.44066
C         90.91664      110.53911       59.54497
O         91.45790      109.50709       59.91861
C         91.63292      112.95144       59.69395
C         91.79736      114.17620       60.56071
O         92.77816      114.23047       61.48344
O         91.08489      115.15081       60.38666
H         92.58294      111.90402       61.84850
H         89.91980      112.09570       60.68752
H         90.98970      113.23132       58.83295
H         92.62819      112.66614       59.28945
N         90.34116      110.60013       58.31063
C         90.41799      109.49076       57.37087
C         91.54166      109.69331       56.36967
O         91.87354      108.72744       55.69522
C         89.07636      109.30245       56.62458
C         88.03577      108.45941       57.37665
C         87.40736      109.02636       58.65543
C         86.52000      110.25493       58.40128
N         85.64031      110.50986       59.54766
H         89.94170      111.48968       57.98270
H         90.69553      108.54640       57.89063
H         89.27710      108.70949       55.70483
H         88.67052      110.28165       56.28460
H         88.51638      107.48897       57.62600
H         87.20396      108.24048       56.67142
H         88.17543      109.25377       59.42671
H         86.75919      108.21552       59.05216
H         85.87572      110.08998       57.50784
H         87.16975      111.13397       58.20192
H         85.28688      111.49248       59.50850
H         84.81643      109.86392       59.50076
H         86.13663      110.35839       60.45535
N         92.16788      110.89494       56.18956
C         93.19102      111.09269       55.16511
C         94.25809      112.06472       55.64953
O         94.00015      112.84684       56.56059
C         92.48218      111.64085       53.90326
C         93.30662      111.76598       52.64940
O         94.42184      111.03899       52.47956
O         92.87302      112.41444       51.71139
H         91.81687      111.72179       56.69456
H         93.68396      110.12049       54.94216
H         92.06237      112.63735       54.15765
H         91.62917      110.97744       53.64150
N         95.49952      112.06236       55.09627
C         96.51066      113.03442       55.46391
C         97.89859      112.63629       55.01884
O         98.13410      111.47579       54.70106
H         95.72698      111.34865       54.39217
H         96.56273      113.13882       56.56828
H         96.22526      114.02233       55.03713
N         98.89984      113.55245       55.05897
C        100.31337      113.20641       54.89048
C        101.16607      114.10678       55.75610
O        100.70884      115.17117       56.14723
C        100.77827      113.33159       53.43364
C        100.06478      112.39069       52.51992
O         99.37535      112.82737       51.61270
O        100.20879      111.06014       52.67692
H         98.64349      114.50478       55.36556
H        100.47143      112.17089       55.27683
H        101.86421      113.10566       53.35898
H        100.61277      114.37932       53.10188
N        102.42518      113.73470       56.11085
C        103.18147      114.41330       57.15175
C        102.62408      114.01927       58.50536
O        103.27993      113.27361       59.22054
H        102.83004      112.87894       55.69801
H        103.20684      115.51459       57.00435
H        104.22808      114.04126       57.10505
N        101.38882      114.44379       58.89871
C        100.72487      113.98313       60.09914
C        100.34131      115.13831       60.99921
O        100.14353      116.25927       60.55143
C         99.43816      113.17693       59.75766
C         98.47934      113.94991       58.83190
O         99.79321      111.95927       59.15418
H        100.87998      115.11548       58.32791
H        101.39300      113.30369       60.67621
H         98.91532      112.95726       60.71880
H         98.94949      111.46978       58.96139
H         98.92352      114.04121       57.82105
H         97.52363      113.39699       58.73108
H         98.25246      114.96233       59.22199
N        100.18915      114.87516       62.31491
C         99.67993      115.80391       63.31773
C        100.81564      116.43227       64.12197
O        100.54095      117.15055       65.07419
C         98.71411      115.02549       64.27781
C         99.41739      113.75653       64.86299
C         97.39613      114.67680       63.56749
C         98.76299      113.13113       66.07967
H        100.49757      113.94755       62.62047
H         99.13618      116.65417       62.84516
H         98.45693      115.71341       65.11293
H        100.44276      114.04148       65.17876
H         99.49081      112.94534       64.10600
H         96.68980      114.18742       64.26944
H         96.91085      115.60699       63.19688
H         97.57003      114.00551       62.70057
H         98.64279      113.89027       66.87768
H         97.78979      112.66926       65.82149
H         99.44333      112.33216       66.45341
N        102.11566      116.24099       63.76575
C        103.24962      116.74033       64.53026
C        104.27766      115.63414       64.61728
O        104.61071      115.03734       63.60065
C        103.91985      117.94665       63.83352
C        103.06636      119.21431       63.88021
O        105.13306      118.23971       64.48543
H        102.32537      115.72040       62.90343
H        102.95334      117.07506       65.55264
H        104.10357      117.66099       62.77133
H        105.82488      118.37565       63.78821
H        103.58508      120.01357       63.30816
H        102.06260      119.05240       63.44181
H        102.95723      119.56532       64.93141
N        104.93221      115.41829       65.78372
C        106.11428      114.56278       65.86057
C        106.18677      113.76186       67.15653
O        107.06687      112.92172       67.28496
C        107.36686      115.43189       65.59877
C        107.48398      116.61707       66.56962
O        107.28921      115.93030       64.28636
H        104.71810      116.05772       66.56127
H        106.07156      113.79224       65.05725
H        108.26755      114.78256       65.69235
H        108.21686      116.08484       63.97131
H        107.58864      116.26275       67.61456
H        108.36759      117.23184       66.30132
H        106.59818      117.28362       66.50498
N        105.27911      113.95350       68.15248
C        105.20295      113.13173       69.34560
C        104.63266      111.77912       68.98723
O        103.70843      111.70486       68.18716
C        104.28540      113.84970       70.34659
C        104.01122      113.05785       71.63184
C        103.09540      113.85043       72.58073
C        103.73508      115.12598       73.16418
N        104.83159      114.81082       74.08118
H        104.57422      114.69000       68.06001
H        106.20060      113.03923       69.83378
H        103.30782      114.07318       69.86472
H        104.79033      114.80917       70.58308
H        104.95942      112.76517       72.12665
H        103.47598      112.12362       71.35889
H        102.78674      113.19507       73.42209
H        102.17677      114.13008       72.01870
H        102.95466      115.68257       73.72611
H        104.08943      115.80778       72.36380
H        104.46065      114.26385       74.89202
H        105.58420      114.26711       73.60474
H        105.24768      115.70096       74.43623
N        105.07715      110.66670       69.63020
C        104.52315      109.34345       69.36272
C        104.94459      108.86575       67.97990
O        105.95354      109.34140       67.47768
C        105.03423      108.34453       70.42712
C        104.32452      108.52221       71.78162
C        102.94081      107.92935       71.73714
O        102.79795      106.73269       71.53421
O        101.85860      108.70419       71.93422
H        105.79732      110.77819       70.36033
H        103.41868      109.43305       69.41543
H        106.12891      108.50429       70.54604
H        104.89822      107.29048       70.10380
H        104.29106      109.59706       72.06665
H        104.88684      107.97658       72.56837
N        104.24623      107.92053       67.27963
C        103.00543      107.30263       67.71550
H        102.20772      107.55106       66.98303
H        103.12876      106.20152       67.74588
H        102.65610      107.62041       68.71182
H        104.60535      107.63878       66.35463
Ca        95.55084      108.39892       52.26018
O         96.71528      109.00477       49.63587
H         96.70769      108.48235       48.79682
H         97.67133      109.04211       49.88756
O         92.86191      107.78055       52.88113
H         92.84616      108.49847       53.55630
H         91.97861      107.84474       52.44322
O         93.29726      109.24370       50.33320
H         92.42193      108.78475       50.28163
H         93.44729      109.59516       49.42096
O         97.43491      110.50426       52.11509
H         97.98743      110.75823       51.33678
H         96.98465      111.34557       52.37101
O         94.80822      106.39117       50.36119
H         95.34762      105.73989       49.84748
H         93.98520      106.51726       49.82615

Ca 1.70



