%chk=loop2.cluster14.chk
%nprocshared=48
%mem=10GB
%nosave
#b3lyp/svp scf=(tight,noincore) Test 
#IOP(5/87=12) Density=Current Pop=(MK,readradii) iop(6/33=2) iop(6/42=6)

loop2.cluster14 

   -2  1 
C         51.28950       43.87715       15.91591
C         52.43008       43.51726       15.01787
O         53.27699       44.35316       14.73769
H         50.37157       43.34106       15.59053
H         51.53034       43.55561       16.95183
H         51.10008       44.96784       15.88940
N         52.53146       42.24751       14.56040
C         53.63941       41.78386       13.74692
C         53.66288       42.44179       12.37232
O         52.66913       42.39749       11.66135
C         53.53279       40.26495       13.64693
C         54.66627       39.64557       12.94075
O         55.93696       39.99692       13.21506
O         54.43151       38.72772       12.18653
H         51.80305       41.56962       14.84029
H         54.58487       41.99295       14.29074
H         52.58777       39.96263       13.14262
H         53.54191       39.84336       14.67239
N         54.81646       43.00967       11.91796
C         54.97186       43.60987       10.59765
C         55.80035       42.72946        9.66780
O         55.90840       43.05016        8.49226
C         55.67637       44.96439       10.75609
H         55.64434       42.95224       12.51366
H         53.97804       43.75172       10.12234
H         55.81863       45.46070        9.77312
H         55.09263       45.63365       11.42072
H         56.68182       44.81326       11.21394
N         56.43184       41.61438       10.12843
C         57.29347       40.78615        9.29469
C         56.49755       39.65300        8.66763
O         56.68408       39.32411        7.50596
C         58.37821       40.12023       10.17329
C         59.10633       41.02778       11.11448
O         59.37490       40.53925       12.34329
O         59.63513       42.05669       10.72076
H         56.37852       41.38560       11.12830
H         57.83447       41.39739        8.54168
H         59.11402       39.60530        9.52390
H         57.92261       39.34861       10.82631
N         55.67590       38.93927        9.47343
C         55.06939       37.66499        9.14938
C         55.85603       36.54020        9.80500
O         55.85700       35.44130        9.26929
H         55.58374       39.27951       10.42244
H         55.00964       37.49810        8.05360
H         54.02440       37.64808        9.53633
N         56.54023       36.73965       10.97937
C         57.31151       35.69892       11.65195
C         56.66252       35.28732       12.98092
O         57.11261       34.33009       13.59445
C         58.76130       36.19020       11.85919
C         58.91298       37.11117       13.04649
N         59.75527       36.78360       14.04937
O         58.26914       38.14544       13.11429
H         56.51232       37.65835       11.42858
H         57.34934       34.80439       10.99417
H         59.11752       36.70828       10.94096
H         59.41644       35.31007       12.02138
H         60.30484       35.91274       14.02203
H         59.86083       37.41259       14.84927
N         55.57483       35.96219       13.46105
C         54.81915       35.57316       14.63252
C         55.41605       35.93828       15.97759
O         54.83830       35.52042       16.97107
H         55.19046       36.72841       12.91898
H         54.58089       34.49164       14.56076
H         53.84745       36.11662       14.60629
N         56.52303       36.73559       16.11698
C         57.02696       37.13427       17.43992
C         57.24421       38.63085       17.53291
O         57.81582       39.21145       16.61872
C         58.35050       36.44628       17.81974
C         58.27290       34.92594       17.68559
O         59.41065       36.94676       17.05643
H         57.00932       37.07993       15.27731
H         56.31297       36.82356       18.23604
H         58.52511       36.70981       18.88952
H         60.24435       36.52523       17.38673
H         57.35982       34.52996       18.17611
H         58.27480       34.63767       16.61260
H         59.16181       34.47977       18.17817
N         56.89447       39.31074       18.66023
C         57.17792       40.73512       18.80127
C         58.66582       40.92886       19.06192
O         59.22486       40.23811       19.90701
C         56.36975       41.47114       19.92367
C         54.92646       40.93412       20.08960
C         56.32195       42.98569       19.57172
C         54.19305       41.54678       21.28147
H         56.45622       38.78867       19.42869
H         56.85557       41.21662       17.85338
H         56.88614       41.31813       20.89831
H         54.94821       39.85705       20.32737
H         54.34574       41.07696       19.15362
H         57.33083       43.41565       19.43370
H         55.76248       43.13340       18.61821
H         55.82218       43.59225       20.34973
H         54.00615       42.62863       21.14481
H         53.21327       41.03971       21.39930
H         54.78395       41.38553       22.21018
N         59.34611       41.91049       18.42253
C         60.73782       42.26295       18.70217
C         60.78014       43.66723       19.26780
O         59.73389       44.28148       19.33211
C         61.55277       42.07752       17.41542
C         60.99987       42.87345       16.26299
O         61.38636       44.13753       16.05177
O         60.18817       42.37147       15.51294
H         58.82580       42.48255       17.74571
H         61.16497       41.59682       19.48591
H         61.46447       40.99775       17.15912
H         62.63060       42.29691       17.55225
N         61.90179       44.21916       19.80464
C         61.85666       45.49538       20.52463
C         61.51765       46.70387       19.61965
O         60.62400       47.44562       19.98731
C         63.11204       45.67493       21.40037
C         62.98525       46.76246       22.44444
C         63.82539       47.88370       22.39519
C         62.06466       46.63781       23.50683
C         63.75450       48.86276       23.39047
C         62.00401       47.61720       24.50499
C         62.85020       48.72723       24.44739
H         62.77364       43.66086       19.81496
H         61.02942       45.41162       21.26653
H         64.00371       45.83246       20.77012
H         63.28292       44.73267       21.96865
H         64.53810       47.99402       21.58886
H         61.41375       45.77447       23.57661
H         64.40959       49.72216       23.34670
H         61.30888       47.51104       25.32941
H         62.80920       49.48040       25.22401
N         62.14726       46.95660       18.41966
C         61.73179       48.03731       17.51317
C         60.24759       47.99157       17.14202
O         59.62307       49.03447       16.99553
C         62.57842       47.76842       16.25497
C         63.82000       47.10618       16.81822
C         63.25300       46.18950       17.89929
H         61.99927       49.01274       17.97276
H         62.08506       46.99937       15.61945
H         62.76681       48.67179       15.63199
H         64.47046       46.59993       16.07236
H         64.41104       47.90048       17.32671
H         62.87649       45.23339       17.49769
H         64.05774       45.99783       18.62926
N         59.63067       46.79396       16.96064
C         58.20677       46.61913       16.66710
C         57.37741       47.00940       17.88255
O         56.36087       47.67316       17.74936
C         58.01157       45.14598       16.26720
C         56.64419       44.75529       15.68974
C         56.86240       43.50189       14.90432
O         57.40983       43.61386       13.81870
O         56.91231       42.30137       15.49983
H         60.20477       45.94754       17.08055
H         57.92250       47.21756       15.77258
H         58.26497       44.46863       17.10155
H         58.76543       44.98699       15.45948
H         56.32457       45.51985       14.94864
H         55.85828       44.65939       16.46702
N         57.82704       46.67201       19.11946
C         57.19584       47.04392       20.35985
H         56.18359       46.60183       20.43393
H         57.81413       46.65039       21.20098
H         57.16683       48.14826       20.44840
H         58.70213       46.17378       19.18586
Ca        58.29828       41.06674       14.24890
O         60.82881       39.74485       14.71711
H         61.34380       40.43034       14.22326
H         61.50473       39.08115       14.99850

Ca 1.70



