%chk=loop4.cluster42.chk
%nprocshared=48
%mem=10GB
%nosave
#b3lyp/svp scf=(tight,noincore) Test 
#IOP(5/87=12) Density=Current Pop=(MK,readradii) iop(6/33=2) iop(6/42=6)

loop4.cluster42 

   -3  1 
C         48.80673       39.99198       47.19191
C         49.27323       40.38512       48.55893
O         50.44546       40.68293       48.73293
H         47.98282       40.67142       46.88571
H         49.62838       40.07487       46.44918
H         48.43111       38.94848       47.21015
N         48.37216       40.45870       49.57851
C         48.70072       40.92184       50.91853
C         49.44937       42.24595       50.90209
O         50.54932       42.32864       51.41244
C         49.23901       39.79666       51.83820
C         50.43140       39.03809       51.36138
O         50.33598       37.83807       51.15333
O         51.62251       39.64702       51.23780
H         47.38280       40.25505       49.37193
H         47.73974       41.16203       51.41868
H         48.41381       39.06083       51.96471
H         49.46154       40.20648       52.84636
N         48.81952       43.35237       50.40231
C         49.26432       44.75849       50.47896
C         49.14402       45.37268       51.87412
O         48.91542       46.57105       51.97198
C         50.58260       45.09317       49.70925
C         51.79755       45.30910       50.65309
C         50.38870       46.35052       48.83336
C         53.12533       45.35676       49.89751
H         47.89325       43.19449       49.97396
H         48.44301       45.26414       49.92071
H         50.76986       44.24346       49.01646
H         51.85025       44.49895       51.39862
H         51.67738       46.25444       51.22891
H         49.50852       46.22961       48.16713
H         50.23537       47.25123       49.46591
H         51.25772       46.51918       48.16778
H         53.25202       44.41911       49.32622
H         53.17517       46.21042       49.19355
H         53.96688       45.45683       50.61315
N         49.17664       44.58282       52.98724
C         48.75195       45.02827       54.29702
C         49.58991       44.60310       55.52202
O         49.35194       45.20992       56.55689
C         47.29722       44.54716       54.49629
C         47.16783       43.04102       54.53515
O         46.77388       42.42822       55.66509
O         47.39839       42.37180       53.54254
H         49.30124       43.59971       52.85976
H         48.73922       46.14061       54.30816
H         46.65984       44.93197       53.66830
H         46.90884       44.96496       55.44611
N         50.48856       43.56660       55.60051
C         50.85785       42.63527       54.54858
C         51.66161       41.49551       55.12713
O         51.14631       40.38527       55.16339
H         50.88969       43.38844       56.53589
H         51.41785       43.13817       53.73330
H         49.93540       42.15525       54.16998
N         52.89948       41.65751       55.67144
C         53.69955       42.88778       55.63298
C         54.39355       43.00906       54.27402
O         54.77168       41.97244       53.74868
C         54.79607       42.73275       56.70508
C         55.71826       43.90921       56.79604
O         55.25336       45.10940       57.18986
O         56.90226       43.77182       56.53769
H         53.30686       40.82985       56.13785
H         53.08343       43.76206       55.90936
H         55.39331       41.82318       56.46901
H         54.32038       42.58380       57.69860
N         54.68837       44.19729       53.64907
C         54.38612       45.53754       54.12658
C         55.61923       46.43786       54.22362
O         55.43983       47.64081       54.32874
H         55.17037       44.14502       52.73759
H         53.86934       45.56499       55.10109
H         53.69748       45.99156       53.38365
N         56.89489       45.93332       54.19372
C         58.08859       46.78340       54.36305
C         58.75951       47.11055       53.03532
O         59.69247       47.90754       53.01421
C         59.02998       46.15476       55.41894
C         59.77601       44.89037       54.94968
C         60.97810       45.24382       54.12304
N         61.06078       44.83268       52.84564
O         61.88570       45.90096       54.61360
H         57.02787       44.92233       54.07884
H         57.76904       47.76435       54.77581
H         58.39317       45.89066       56.28730
H         59.77493       46.89620       55.78311
H         59.09132       44.21725       54.39213
H         60.15260       44.32424       55.82481
H         60.30164       44.27946       52.43138
H         61.86746       45.07890       52.26749
N         58.27575       46.60210       51.87288
C         58.70384       47.04906       50.55588
C         60.05343       46.47386       50.17817
O         60.22423       45.27798       50.30031
C         57.59917       46.66948       49.52147
C         57.98683       47.04006       48.08237
C         56.29164       47.40633       49.88556
H         57.48433       45.94233       51.91787
H         58.75776       48.15972       50.53195
H         57.41315       45.57140       49.54663
H         58.86363       46.44981       47.74627
H         57.14842       46.80723       47.39293
H         58.22037       48.12226       48.00425
H         55.92031       47.12045       50.89127
H         56.45879       48.50529       49.88649
H         55.48886       47.17066       49.15934
N         61.01740       47.28677       49.63923
C         62.27336       46.87692       48.98808
C         62.06880       46.13376       47.66117
O         62.65926       46.54227       46.66633
C         63.32172       46.13508       49.85933
C         63.73355       46.81041       51.15449
N         63.96863       48.14127       51.22416
O         63.90857       46.12714       52.15110
H         60.81594       48.29699       49.61452
H         62.78878       47.82071       48.70235
H         64.24705       46.08590       49.23725
H         63.02456       45.08434       50.05756
H         63.85486       48.75153       50.40567
H         64.25206       48.56416       52.12133
N         61.30769       45.00447       47.57313
C         61.33542       44.09600       46.45097
C         60.10679       43.17646       46.37943
O         59.25622       43.18921       47.26312
C         62.61607       43.22710       46.59219
C         62.96243       42.76871       48.01788
C         64.29155       42.89405       48.46500
C         62.00547       42.22358       48.90445
C         64.66033       42.46982       49.74546
C         62.37498       41.82555       50.19573
C         63.70670       41.93636       50.61429
O         64.07995       41.52944       51.84556
H         60.85211       44.64629       48.39370
H         61.32610       44.66341       45.49216
H         63.46951       43.83491       46.22303
H         62.55934       42.34635       45.92435
H         65.05051       43.30394       47.81208
H         60.97431       42.11730       48.62080
H         65.69241       42.55353       50.06143
H         61.62671       41.42477       50.86957
H         63.44940       41.14045       52.46868
N         59.98634       42.32833       45.31430
C         58.98359       41.27614       45.12959
C         57.53614       41.72038       44.97947
O         56.70352       40.85645       44.74184
C         59.04516       40.19532       46.23175
C         60.43121       39.56738       46.39065
C         60.35971       38.41439       47.35013
O         60.92037       38.51322       48.56953
O         59.77901       37.38776       47.03170
H         60.71042       42.39526       44.58107
H         59.23734       40.76919       44.17172
H         58.33098       39.38670       45.95515
H         58.72009       40.61621       47.20893
H         61.12455       40.33977       46.77953
H         60.82185       39.19643       45.41759
N         57.14766       43.02258       45.07312
C         55.74102       43.39783       44.99675
C         55.45722       43.99284       43.64344
O         54.62347       43.46306       42.91877
C         55.38469       44.40661       46.10602
C         55.72960       43.95609       47.52816
C         55.07928       42.66888       47.90565
O         55.81565       41.69471       48.46517
O         53.88033       42.51232       47.74349
H         57.84622       43.76587       45.18784
H         55.08238       42.50646       45.12114
H         54.29534       44.62671       46.04756
H         55.92823       45.35773       45.94113
H         55.38078       44.74617       48.22065
H         56.82728       43.85971       47.65619
N         56.11778       45.11146       43.23945
C         55.89767       45.74006       41.95778
H         55.46500       46.74728       42.12621
H         56.87176       45.84617       41.43760
H         55.21178       45.15786       41.30732
H         56.80224       45.54811       43.87389
Ca        53.30678       40.13003       49.05249
O         53.62827       42.20294       50.73370
H         52.77649       42.61229       50.99045
H         54.24751       42.49414       51.43732
O         55.61434       38.78600       48.04439
H         56.38284       39.40681       48.01658
H         55.61426       38.36105       47.15209
O         55.21655       39.62024       51.14431
H         55.30050       39.49072       52.12148
H         56.13192       39.48981       50.79104
O         52.59631       37.41061       48.79780
H         51.94747       37.87044       49.38014
H         52.02984       36.84959       48.21497
O         52.71116       39.34763       46.47348
H         53.08482       38.60846       45.93262
H         52.62710       40.10989       45.84845

Ca 1.70



