%chk=loop3.cluster53.chk
%nprocshared=48
%mem=10GB
%nosave
#b3lyp/svp scf=(tight,noincore) Test 
#IOP(5/87=12) Density=Current Pop=(MK,readradii) iop(6/33=2) iop(6/42=6)

loop3.cluster53 

   0  1 
C         96.66075       45.16101      101.24308
C         97.83349       45.79454      100.56997
O         97.73561       46.13266       99.40145
H         95.79765       45.09443      100.54676
H         96.94278       44.13476      101.55985
H         96.36997       45.75912      102.13054
N         98.99353       45.97993      101.25731
C        100.21042       46.52443      100.65983
C        101.45337       45.90034      101.26629
O        101.35295       45.08740      102.17977
C        100.23684       48.07000      100.78881
C        100.13808       48.60552      102.19250
O        100.07477       49.81219      102.36306
O        100.11230       47.78284      103.25987
H         99.00655       45.71241      102.25396
H        100.24699       46.27384       99.58088
H         99.38329       48.48328      100.21605
H        101.16634       48.48017      100.33479
N        102.67975       46.25954      100.80413
C        103.92886       45.86131      101.43871
C        104.77825       44.97269      100.54715
O        105.82978       44.52936      100.98276
C        104.67293       47.14945      101.82185
C        103.90468       47.91078      102.91924
C        104.56398       49.26009      103.22345
C        103.89982       50.01934      104.38846
N        102.58330       50.54962      104.04038
H        102.73468       46.89832       99.99225
H        103.74065       45.25962      102.35663
H        104.77174       47.78179      100.90943
H        105.69330       46.91701      102.19342
H        103.90349       47.28025      103.83643
H        102.85646       48.08074      102.60722
H        104.56066       49.90019      102.31288
H        105.61733       49.06146      103.50876
H        104.55374       50.87553      104.65585
H        103.81698       49.35609      105.27864
H        102.64521       51.15325      103.18717
H        101.92118       49.76319      103.89171
H        102.22396       51.13077      104.83227
N        104.33465       44.59729       99.31956
C        105.01067       43.60978       98.49183
C        105.14685       44.09295       97.05036
O        105.42956       43.27738       96.18265
C        104.21759       42.28789       98.59366
C        102.75960       42.47419       98.33064
O        102.38470       43.33599       97.36093
O        101.93602       41.86135       98.99067
H        103.42521       44.94320       98.98762
H        106.03482       43.36944       98.84589
H        104.34371       41.85688       99.61260
H        104.61739       41.54509       97.87356
N        104.97486       45.40733       96.72104
C        105.11227       45.89600       95.36005
C        103.80319       46.45111       94.85673
O        102.81661       46.40058       95.57804
H        104.75866       46.10093       97.45196
H        105.43444       45.09534       94.66897
H        105.88623       46.69382       95.35320
N        103.69491       47.03784       93.63158
C        104.80751       47.23852       92.71053
C        104.34366       46.89749       91.29268
O        103.43214       47.56576       90.82259
C        105.17420       48.73790       92.81722
C        106.27240       49.21120       91.90218
N        107.55714       48.84109       92.10520
O        106.00261       49.98390       90.99485
H        102.78711       47.45920       93.38135
H        105.69029       46.64402       93.00007
H        105.46362       48.97753       93.86525
H        104.25694       49.32628       92.59407
H        107.81150       48.22801       92.89257
H        108.30206       49.20759       91.49303
N        104.89145       45.91465       90.50995
C        105.94118       44.97873       90.89254
C        105.35080       43.73532       91.52665
O        104.79746       43.82867       92.60706
H        104.52432       45.82257       89.54870
H        106.73489       45.45360       91.49992
H        106.44178       44.66487       89.95178
N        105.37619       42.53798       90.85995
C        104.64755       41.35502       91.32592
C        105.49887       40.07463       91.25670
O        106.49240       40.04440       90.54661
C        103.43903       41.18712       90.37499
C        102.51964       42.38821       90.36016
C        101.55105       42.55666       91.36046
C        102.60624       43.33430       89.32335
C        100.67124       43.64145       91.31059
C        101.74093       44.43212       89.29280
C        100.76383       44.58376       90.28425
O         99.90700       45.62506       90.25455
H        105.80730       42.50081       89.92450
H        104.28125       41.49187       92.36721
H        102.83170       40.29281       90.59592
H        103.84257       41.03660       89.34885
H        101.46121       41.84099       92.16487
H        103.34986       43.22567       88.54514
H         99.91212       43.74594       92.06561
H        101.82364       45.15824       88.49448
H         99.93307       46.28542       89.54728
N        105.06248       38.93937       91.89168
C        105.61359       37.59405       91.68967
C        104.64256       36.77134       90.81966
O        105.01701       35.71325       90.33521
C        105.93044       36.91171       93.06864
C        104.68472       36.26078       93.74219
C        107.04214       35.86050       92.91996
C        104.85380       36.04626       95.25077
H        104.23984       39.02157       92.47198
H        106.55852       37.71124       91.11726
H        106.32618       37.71478       93.72914
H        104.45403       35.28690       93.25322
H        103.79903       36.90166       93.61623
H        106.72826       35.04418       92.23673
H        107.95742       36.33880       92.51382
H        107.31016       35.41525       93.89958
H        104.99078       37.02908       95.75048
H        103.93936       35.57308       95.67030
H        105.71706       35.39525       95.49161
N        103.38960       37.25500       90.54114
C        102.47640       36.68313       89.55995
C        101.72821       35.44860       90.03763
O        100.99123       34.87390       89.24295
C        101.44861       37.76691       89.14801
O        100.47225       37.99009       90.13540
H        103.10685       38.14141       90.95013
H        103.07743       36.45093       88.65364
H        100.91847       37.44177       88.23201
H        101.96991       38.71931       88.89559
H        100.92706       38.29430       90.95679
N        101.84726       34.98347       91.31424
C        101.16635       33.78677       91.78889
C        100.67349       33.96813       93.21220
O        101.47314       34.28477       94.08725
C        102.14491       32.62114       91.73922
H        102.49857       35.45226       91.95846
H        100.31406       33.51712       91.12140
H        102.47127       32.46110       90.68932
H        103.03614       32.83721       92.36519
H        101.65037       31.69473       92.10075
N         99.36373       33.75845       93.52674
C         98.81942       33.86613       94.87537
C         99.06362       35.24228       95.47094
O         99.53573       35.36181       96.58965
C         99.32160       32.72726       95.77264
H         98.70785       33.50739       92.76795
H         97.71607       33.74456       94.79999
H         98.84704       32.79512       96.77558
H         99.03764       31.75213       95.32315
H        100.42331       32.76268       95.89328
N         98.72313       36.33266       94.73782
C         98.80159       37.69808       95.24167
C         97.41625       38.29815       95.20411
O         96.97222       38.83964       96.20972
C         99.77361       38.53442       94.41215
C        101.18503       37.94697       94.45470
C        102.15812       38.91504       93.88666
O        103.27730       39.21483       94.57384
O        101.94840       39.43611       92.80671
H         98.38287       36.18109       93.78132
H         99.17759       37.73422       96.28933
H         99.79424       39.55044       94.85325
H         99.44024       38.61536       93.35280
H        101.20557       37.00563       93.86799
H        101.50297       37.73016       95.49815
N         96.64523       38.19213       94.08555
C         95.28280       38.66207       94.04771
H         94.68902       38.15372       94.83845
H         95.25745       39.75977       94.19758
H         94.83310       38.41476       93.06242
H         97.01382       37.72294       93.24493
Ca       100.40437       43.88704       96.45660
O         99.09935       41.26593       96.74064
H         99.82836       40.73153       97.13809
H         98.35812       41.18281       97.38763
O        101.96560       41.30544       95.74436
H        102.94342       41.32689       95.59200
H        101.79837       40.41776       96.14347
O         99.24844       42.55910       94.16112
H         99.72775       41.69630       94.11202
H         98.33698       42.32766       94.46839
O         99.70877       46.60882       96.94094
H         99.16644       46.82716       97.73054
H         99.53041       47.36733       96.33573
O        102.23916       43.83974       94.20809
H        102.95729       43.18899       94.39230
H        102.51366       44.26850       93.36189
O        100.27973       45.95266       94.11294
H         99.74707       45.35969       93.53205
H        100.70656       46.58124       93.48305
O         99.08319       43.48259       98.79906
H         98.46761       42.93504       99.34093
H         99.92720       42.97711       98.82803
O         97.84523       44.79902       95.52478
H         97.03753       44.95688       96.07220
H         97.67880       45.29011       94.68223

Ca 1.70



