%chk=loop3.cluster211.chk
%nprocshared=48
%mem=10GB
%nosave
#b3lyp/svp scf=(tight,noincore) Test 
#IOP(5/87=12) Density=Current Pop=(MK,readradii) iop(6/33=2) iop(6/42=6)

loop3.cluster211 

   0  1 
C         81.88472       52.76425       29.50594
C         81.97607       51.58157       30.42184
O         81.04776       51.32833       31.17517
H         82.73083       53.45008       29.71510
H         81.94509       52.42233       28.45059
H         80.92862       53.31078       29.65057
N         83.08101       50.78540       30.37522
C         83.23654       49.59200       31.19508
C         84.61274       49.59885       31.84250
O         85.60275       49.80499       31.15901
C         83.00304       48.36463       30.31298
C         82.85400       47.12496       31.13841
O         81.75716       46.60616       31.25672
O         83.90988       46.59158       31.76667
H         83.81389       51.00291       29.68445
H         82.44509       49.55481       31.97949
H         83.78921       48.24388       29.53809
H         82.02925       48.52469       29.80107
N         84.72828       49.39269       33.18038
C         85.99783       49.51601       33.89868
C         87.05361       48.53376       33.43157
O         88.21519       48.91631       33.33766
C         85.78914       49.34348       35.41438
C         84.81585       50.39320       35.97356
C         84.75622       50.33869       37.50011
C         83.94396       51.50015       38.09968
N         82.58001       51.58462       37.57257
H         83.87552       49.16915       33.70791
H         86.39308       50.54702       33.75255
H         86.77751       49.49033       35.90518
H         85.42528       48.31871       35.64951
H         83.79592       50.21424       35.57620
H         85.15101       51.40441       35.65875
H         85.78868       50.42311       37.90561
H         84.33488       49.35939       37.81449
H         84.47037       52.45750       37.89052
H         83.90777       51.36209       39.20269
H         82.59210       51.80592       36.55112
H         82.06243       50.69302       37.74382
H         82.08453       52.37003       38.05231
N         86.72987       47.24728       33.12559
C         87.71717       46.24487       32.73886
C         87.80732       46.04151       31.22805
O         88.76036       45.42007       30.78468
C         87.46490       44.93965       33.53071
C         86.07780       44.37934       33.33842
O         85.74685       43.90344       32.26805
O         85.19739       44.39640       34.35836
H         85.74052       46.97614       33.16895
H         88.73079       46.60734       33.02363
H         87.57716       45.18408       34.60787
H         88.21287       44.15806       33.27674
N         86.87101       46.55613       30.37569
C         86.99302       46.47254       28.92343
C         86.08779       45.43195       28.29937
O         86.06583       45.33139       27.08011
H         86.04148       47.02249       30.75420
H         88.03100       46.23231       28.61714
H         86.74617       47.47397       28.50835
N         85.31835       44.61494       29.06526
C         84.41377       43.61196       28.52761
C         83.03125       44.09337       28.85905
O         82.73173       44.24865       30.02743
C         84.79592       42.23463       29.12619
C         83.80786       41.12587       28.85781
N         83.42555       40.29731       29.85991
O         83.38014       40.94785       27.72840
H         85.33542       44.72975       30.08535
H         84.49090       43.53499       27.42184
H         84.94599       42.31640       30.22515
H         85.77437       41.94797       28.68394
H         83.83514       40.38724       30.79749
H         82.75868       39.53179       29.68895
N         82.15237       44.44403       27.87336
C         80.90120       45.12598       28.16922
C         79.97394       44.34548       29.06521
O         79.01119       44.92501       29.55097
H         82.41282       44.30633       26.88614
H         80.37250       45.40600       27.23472
H         81.16134       46.06789       28.70139
N         80.21753       43.03742       29.37156
C         79.49616       42.35400       30.42677
C         80.09172       42.75386       31.80087
O         80.37947       44.11635       31.85571
C         79.62608       40.82993       30.28713
C         78.94990       40.31569       29.04663
C         79.63115       40.26803       27.81921
C         77.62319       39.86529       29.11872
C         78.98986       39.77482       26.67978
C         76.98437       39.37422       27.98010
C         77.66663       39.32581       26.75612
O         77.05927       38.84752       25.65231
H         80.98352       42.53826       28.90600
H         78.41368       42.62339       30.36460
H         79.15049       40.34055       31.16471
H         80.69248       40.52752       30.30714
H         80.65671       40.60219       27.74487
H         77.08535       39.89828       30.05849
H         79.52283       39.73795       25.73809
H         75.96074       39.03019       28.05060
H         76.14738       38.52396       25.67681
N         79.18946       42.31521       32.88187
C         79.23166       42.98302       34.19402
C         80.50176       42.64133       34.95969
O         81.59642       43.04191       34.61471
C         78.81184       44.48469       34.21974
C         78.92993       45.06649       35.65020
C         77.37752       44.61151       33.66432
C         78.62703       46.56533       35.68799
H         78.19720       42.21517       32.56606
H         78.39914       42.50192       34.75153
H         79.49016       45.11023       33.62169
H         79.98575       44.95808       35.97961
H         78.28704       44.52115       36.37550
H         77.34615       44.29901       32.60065
H         76.67714       43.96992       34.24498
H         77.00726       45.65160       33.69872
H         79.19178       47.08897       34.88585
H         77.54292       46.75317       35.55743
H         78.93820       46.99071       36.66274
N         80.36430       41.87062       36.05595
C         81.42424       41.43979       36.95423
C         80.97252       40.27208       37.88340
O         81.82959       39.70308       38.54336
C         81.92307       42.66591       37.74681
O         80.83016       43.28404       38.37159
H         79.41703       41.61115       36.24522
H         82.25958       41.02488       36.34401
H         82.38787       43.39491       37.04443
H         82.68537       42.37073       38.50040
H         81.16339       44.13176       38.76479
N         79.65740       39.85659       37.97508
C         79.14715       38.72925       38.72621
C         79.59883       38.66329       40.17538
O         80.02994       37.59630       40.59184
C         79.38519       37.44474       37.91982
H         78.90374       40.34488       37.50979
H         78.03845       38.84265       38.75737
H         80.46844       37.23947       37.79813
H         78.88982       36.58140       38.41131
H         78.93375       37.55724       36.90714
N         79.52660       39.71590       41.04950
C         79.12342       41.08874       40.72828
C         78.02490       41.56381       41.66129
O         77.79148       40.89903       42.65916
C         80.35620       41.96565       40.98104
H         79.84307       39.53927       42.01526
H         78.77227       41.17836       39.69249
H         80.15614       43.03290       40.78526
H         80.67943       41.86921       42.04191
H         81.20527       41.62960       40.35415
N         77.32543       42.72905       41.48286
C         77.31762       43.60117       40.30295
C         75.87997       43.69789       39.79067
O         75.64941       43.48872       38.60819
C         77.84472       45.01139       40.66221
C         77.75897       45.99456       39.47372
C         78.32210       47.33970       39.82925
O         79.51761       47.46967       40.03855
O         77.51057       48.41242       39.90316
H         76.69904       42.99231       42.25600
H         77.96570       43.21752       39.48547
H         78.90246       44.92628       40.98645
H         77.25543       45.43024       41.50587
H         76.69302       46.12947       39.19103
H         78.30472       45.60116       38.59024
N         74.85883       44.01246       40.64513
C         73.48432       44.12315       40.20921
H         72.83146       44.29792       41.09314
H         73.37565       44.98236       39.51629
H         73.15385       43.18575       39.71427
H         75.04977       44.16203       41.64385
Ca        82.54686       44.31581       32.60804
O         83.39118       41.76015       32.64442
H         83.82858       41.58173       33.51203
H         82.52400       41.28346       32.68560
O         82.14346       46.20907       34.62772
H         82.74752       46.31997       35.40330
H         81.97869       47.12724       34.29749

Ca 1.70



