%chk=loop3.cluster23.chk
%nprocshared=48
%mem=10GB
%nosave
#b3lyp/svp scf=(tight,noincore) Test 
#IOP(5/87=12) Density=Current Pop=(MK,readradii) iop(6/33=2) iop(6/42=6)

loop3.cluster23 

   0  1 
C         78.36460       45.87841       37.24943
C         77.58531       45.18438       38.31324
O         78.13125       44.33711       39.00619
H         79.40549       45.49448       37.22331
H         77.87812       45.69639       36.26968
H         78.38293       46.96864       37.46070
N         76.28483       45.51595       38.52088
C         75.51098       44.89981       39.57811
C         75.28736       43.41651       39.29512
O         74.65867       43.06396       38.30657
C         74.21636       45.68181       39.80027
C         73.43806       45.14652       40.94417
O         73.77915       44.14370       41.53205
O         72.37330       45.80569       41.36334
H         75.85948       46.26214       37.94716
H         76.08717       45.01845       40.52351
H         73.57302       45.70301       38.89618
H         74.49401       46.72807       40.06001
N         75.83232       42.49647       40.14027
C         75.80411       41.05426       39.91303
C         74.40382       40.45064       40.09771
O         74.12623       39.38284       39.57152
C         76.80212       40.39819       40.89904
C         77.28749       39.04323       40.40822
C         78.26564       38.36746       41.37874
C         78.66789       37.01293       40.77787
N         79.63370       36.29801       41.60720
H         76.37038       42.85085       40.93956
H         76.17148       40.89675       38.87469
H         76.34106       40.33938       41.91262
H         77.71641       41.02757       40.96250
H         77.81643       39.21095       39.44215
H         76.41968       38.37745       40.24250
H         77.77271       38.20781       42.36403
H         79.16418       39.00739       41.53562
H         79.10779       37.16907       39.76724
H         77.74962       36.39410       40.66975
H         79.76897       35.34265       41.20245
H         80.55153       36.79882       41.59902
H         79.28119       36.20379       42.58657
N         73.50688       41.07416       40.91114
C         72.15264       40.61665       41.22138
C         71.09094       41.63088       40.77810
O         69.91218       41.36973       40.97967
C         72.06483       40.35575       42.74634
C         72.57120       41.50108       43.57543
O         73.83397       41.48449       44.02962
O         71.86215       42.45602       43.81335
H         73.81910       41.92061       41.37793
H         71.92453       39.66039       40.70003
H         72.72342       39.49365       42.97511
H         71.03948       40.07826       43.07614
N         71.42774       42.79418       40.14182
C         70.44826       43.75797       39.65608
C         69.60200       44.46276       40.71334
O         68.66748       45.14863       40.32876
H         72.41033       42.97541       39.91678
H         69.77485       43.23037       38.94871
H         70.97652       44.55366       39.08551
N         69.85498       44.35326       42.05175
C         68.96954       44.94454       43.06845
C         68.94791       46.48199       43.08486
O         68.15112       47.05264       43.81633
C         69.31555       44.38697       44.47612
C         70.55138       44.97557       45.11922
N         70.51845       45.39687       46.40586
O         71.59551       45.03807       44.49312
H         70.64868       43.78354       42.35171
H         67.94979       44.56818       42.83518
H         69.45001       43.28795       44.39033
H         68.45621       44.54904       45.16045
H         69.65923       45.31391       46.96922
H         71.37072       45.76265       46.85223
N         69.83500       47.20908       42.34932
C         69.93863       48.65619       42.35188
C         71.21732       49.17022       43.01164
O         71.46315       50.36402       42.92808
H         70.48087       46.72008       41.75099
H         69.07276       49.13175       42.85035
H         69.93940       48.98082       41.28585
N         72.05900       48.34727       43.71404
C         73.31697       48.81289       44.31655
C         74.49444       47.93671       43.86649
O         74.10506       47.11000       42.83302
C         73.28110       48.69390       45.84584
C         72.20743       49.51454       46.50001
C         72.11496       50.89653       46.26901
C         71.30751       48.90160       47.38361
C         71.12483       51.64804       46.90667
C         70.32807       49.65318       48.02658
C         70.23098       51.02998       47.78879
O         69.28722       51.76449       48.40854
H         71.81462       47.35669       43.82028
H         73.52120       49.86589       44.03270
H         74.25895       49.03424       46.25110
H         73.15216       47.62201       46.12028
H         72.80547       51.39064       45.59771
H         71.37652       47.84667       47.59243
H         71.05707       52.71172       46.72039
H         69.65025       49.16457       48.71443
H         68.66058       51.36175       49.02666
N         75.69187       48.68355       43.47948
C         76.88871       47.81964       43.35930
C         77.66567       47.77297       44.67792
O         77.71317       48.76942       45.39056
C         77.77069       48.33815       42.19094
C         76.94130       48.52339       40.89080
C         78.92803       47.35613       41.88238
C         77.58584       49.56770       39.97975
H         75.86022       49.54454       44.04756
H         76.58836       46.78704       43.07259
H         78.16481       49.33085       42.50104
H         75.92044       48.91082       41.08545
H         76.82285       47.54608       40.37562
H         78.50886       46.35086       41.65237
H         79.51412       47.66364       40.99323
H         79.63036       47.26288       42.73104
H         78.65656       49.35975       39.79064
H         77.04634       49.61120       39.01239
H         77.50381       50.56386       40.47070
N         78.32761       46.64180       45.04671
C         79.12275       46.51846       46.26882
C         80.56207       46.21165       45.92784
O         80.88322       46.14990       44.75383
C         78.53930       45.39603       47.13238
O         78.57289       44.17566       46.44452
H         78.28228       45.82863       44.41600
H         79.10754       47.45985       46.86152
H         77.50214       45.66606       47.42706
H         79.10777       45.27525       48.07469
H         77.64654       43.99408       46.14835
N         81.50794       46.02363       46.88935
C         82.88800       45.69291       46.54986
C         83.02700       44.28404       45.97615
O         83.98634       44.02489       45.26740
C         83.79732       45.83280       47.76739
H         81.24544       46.15267       47.88134
H         83.23696       46.43360       45.79420
H         83.54090       45.07131       48.53450
H         84.85953       45.70986       47.46661
H         83.67140       46.84536       48.20659
N         82.12687       43.30741       46.29489
C         82.20676       41.95641       45.73846
C         81.94225       42.01029       44.24684
O         82.64368       41.39264       43.45804
C         81.13419       41.05776       46.38843
H         81.35626       43.52752       46.94230
H         83.19133       41.49993       45.97546
H         80.10372       41.36064       46.09987
H         81.28510       40.00031       46.07921
H         81.20944       41.10272       47.49568
N         80.88075       42.73494       43.82053
C         80.38829       42.80476       42.45235
C         81.36954       43.59315       41.59151
O         81.71762       43.15187       40.50618
C         78.96196       43.41623       42.49484
C         78.05508       42.58867       43.46761
C         76.70818       43.15154       43.74695
O         76.26235       44.21202       43.08506
O         76.04873       42.70264       44.66930
H         80.38131       43.27561       44.53968
H         80.25229       41.78152       42.03735
H         78.52580       43.44124       41.47535
H         79.03832       44.45757       42.85865
H         78.49984       42.54526       44.46851
H         77.95504       41.54041       43.14444
N         81.91307       44.74517       42.06968
C         82.93896       45.49812       41.38354
H         83.84666       44.87067       41.25890
H         82.57419       45.85626       40.40081
H         83.22183       46.38160       42.00124
H         81.62873       45.06923       42.98792
Ca        74.38608       45.12355       43.79834
O         73.13879       43.45320       46.40684
H         73.32670       43.95963       47.23604
H         73.12841       42.50517       46.68954
O         75.29084       45.97483       46.11600
H         75.31045       45.05794       46.48647
H         75.16971       46.56980       46.89381

Ca 1.70



