%chk=loop4.cluster124.chk
%nprocshared=48
%mem=10GB
%nosave
#b3lyp/svp scf=(tight,noincore) Test 
#IOP(5/87=12) Density=Current Pop=(MK,readradii) iop(6/33=2) iop(6/42=6)

loop4.cluster124 

   -3  1 
C         40.99185       40.04883       42.99012
C         40.63681       40.37033       44.42024
O         41.24702       41.25663       44.99850
H         42.07231       39.78643       42.94542
H         40.42416       39.16754       42.62329
H         40.80191       40.90366       42.30933
N         39.67408       39.64248       45.06655
C         39.43727       39.66021       46.52023
C         38.99458       40.99332       47.10460
O         38.91963       41.10439       48.32103
C         40.67859       39.09834       47.24966
C         41.05348       37.74231       46.71439
O         42.16858       37.15062       47.12608
O         40.41561       37.21374       45.81653
H         39.15573       38.93894       44.52033
H         38.62169       38.94141       46.74720
H         40.49263       38.99789       48.33963
H         41.53944       39.78709       47.11236
N         38.68698       42.05115       46.30920
C         38.36549       43.36885       46.84621
C         36.92387       43.42613       47.37476
O         36.03260       43.03042       46.63728
C         38.61143       44.43788       45.73885
C         38.73506       45.83792       46.37711
C         37.58771       44.39624       44.58253
C         39.03048       46.93355       45.35753
H         38.76090       41.93947       45.29088
H         39.12386       43.58156       47.62644
H         39.61020       44.21256       45.29916
H         39.59085       45.79645       47.08743
H         37.82269       46.11138       46.94686
H         36.58454       44.72821       44.91834
H         37.91251       45.06622       43.76106
H         37.50653       43.38063       44.14527
H         39.82888       46.60859       44.65691
H         38.10992       47.17400       44.78514
H         39.36608       47.85058       45.88323
N         36.57042       43.92189       48.60195
C         37.49743       44.39188       49.62413
C         37.89534       43.24709       50.53345
O         38.92976       43.35145       51.17583
C         36.83723       45.48364       50.49548
C         36.44095       46.69811       49.70482
O         37.29216       47.38212       49.15981
O         35.14475       47.05450       49.62253
H         35.56482       43.92532       48.83905
H         38.39930       44.84563       49.16578
H         37.53451       45.80853       51.29935
H         35.93197       45.05586       50.98074
N         37.08486       42.14575       50.67571
C         37.40212       40.97754       51.48528
C         38.18293       41.29416       52.73408
O         37.67929       41.97489       53.61721
H         36.21676       42.08961       50.12655
H         37.96789       40.27267       50.84084
H         36.46290       40.45202       51.76278
N         39.47300       40.87570       52.82084
C         40.37204       41.24223       53.89920
C         41.17368       42.44844       53.45847
O         41.17030       43.44862       54.16160
C         41.24807       40.02176       54.23861
C         42.21400       40.26400       55.35890
O         43.39458       39.99073       55.21108
O         41.77835       40.72951       56.54555
H         39.87286       40.37097       52.01474
H         39.80168       41.52052       54.81604
H         41.81157       39.69121       53.33685
H         40.57648       39.19670       54.55193
N         41.84577       42.43896       52.27118
C         42.57507       43.59588       51.77656
C         44.04816       43.32910       51.60864
O         44.74873       44.23783       51.18142
H         41.81215       41.59778       51.67654
H         42.48515       44.46114       52.46496
H         42.14042       43.89580       50.79785
N         44.60783       42.11931       51.91651
C         46.03112       41.84743       51.78287
C         46.47529       42.12219       50.35663
O         47.41516       42.87504       50.14417
C         46.85135       42.65719       52.82437
C         46.49324       42.30041       54.28429
C         45.69963       43.38353       54.97957
N         44.45811       43.14488       55.45256
O         46.20528       44.48318       55.14675
H         44.01119       41.34271       52.23938
H         46.20248       40.76581       51.98400
H         46.77691       43.75609       52.65860
H         47.91678       42.38977       52.66602
H         47.43380       42.19834       54.86615
H         45.99159       41.30824       54.32512
H         44.01877       42.23478       55.31269
H         43.93582       43.87713       55.95545
N         45.75464       41.61020       49.31653
C         45.99979       42.05969       47.94916
C         47.29007       41.49138       47.40250
O         47.75198       40.46783       47.89978
C         44.78335       41.82027       47.01347
C         44.51075       40.33209       46.74692
C         43.51286       42.49089       47.57360
H         44.93977       41.01809       49.52539
H         46.12190       43.16550       47.99870
H         45.01615       42.31089       46.04324
H         43.63849       40.22480       46.06947
H         45.38308       39.85792       46.25299
H         44.29162       39.78585       47.68857
H         43.13365       41.96695       48.47744
H         43.70693       43.55203       47.83875
H         42.71002       42.47310       46.80913
N         47.95318       42.11624       46.38287
C         49.25401       41.63861       45.92222
C         49.66304       42.23838       44.56621
O         48.90553       43.00114       43.97633
C         50.31011       41.96237       47.02061
C         51.51866       41.05454       47.07309
N         52.55401       41.36957       47.88091
O         51.55234       40.01351       46.43232
H         47.53878       42.96885       45.97197
H         49.16351       40.53825       45.77635
H         49.87042       41.86709       48.03452
H         50.61137       43.02708       46.90436
H         52.54501       42.24346       48.42675
H         53.37110       40.74527       47.94330
N         50.85526       41.89477       44.00543
C         51.32264       42.28486       42.68408
C         51.42949       40.97266       41.92236
O         52.49788       40.39747       41.77517
C         52.61935       43.12432       42.78110
C         53.74335       42.46617       43.54578
C         54.75186       41.77421       42.85886
C         53.79287       42.54004       44.94866
C         55.75868       41.11171       43.56366
C         54.81417       41.89149       45.64932
C         55.78304       41.15241       44.95990
O         56.73238       40.47031       45.63129
H         51.46138       41.24724       44.51248
H         50.58441       42.92969       42.15377
H         52.38400       44.09656       43.26882
H         52.94722       43.36452       41.74757
H         54.73793       41.72265       41.77805
H         53.03907       43.09365       45.49664
H         56.51123       40.55319       43.02376
H         54.85080       41.95187       46.72696
H         56.72375       40.40824       46.59746
N         50.26832       40.36560       41.59040
C         50.11424       38.93906       41.37827
C         48.85502       38.60080       40.55869
O         49.01150       37.82959       39.62235
C         50.19895       38.20438       42.74430
C         50.22606       36.66359       42.64705
C         51.40483       36.07827       41.90182
O         51.46122       34.74860       41.69919
O         52.31485       36.78341       41.49503
H         49.45143       40.91855       41.76269
H         50.97267       38.59965       40.76403
H         49.33652       38.50391       43.37522
H         51.12198       38.52488       43.27625
H         49.28912       36.32031       42.16506
H         50.25484       36.24422       43.67776
N         47.59108       39.12416       40.74548
C         47.12518       40.06333       41.77171
C         46.86944       41.41786       41.10304
O         47.75886       42.25642       41.11715
C         45.89229       39.46587       42.46775
C         46.33676       38.20611       43.21602
C         45.20696       37.33361       43.60373
O         44.33775       37.73506       44.52397
O         45.14301       36.19630       43.17310
H         46.87689       38.83836       40.05551
H         47.83416       40.19820       42.60639
H         45.13795       39.19663       41.69772
H         45.43014       40.18813       43.17962
H         46.91792       38.49449       44.12034
H         46.98792       37.58643       42.56953
N         45.70981       41.68905       40.44146
C         45.51697       42.92137       39.69665
H         44.67885       43.50170       40.13183
H         46.42074       43.56987       39.68549
H         45.28096       42.66691       38.64289
H         44.94047       41.00817       40.44718
Ca        43.07901       36.13881       45.40560
O         41.99644       36.25607       42.51305
H         42.33010       36.80615       41.76139
H         41.13016       36.66698       42.76068
O         44.18948       33.45179       43.88417
H         45.07540       33.42183       44.32538
H         44.36583       33.85884       42.99935
O         42.57655       33.85116       46.94916
H         42.93512       32.96377       47.19796
H         42.08650       34.16519       47.74981
O         40.94123       34.00561       44.45155
H         40.72436       34.19343       43.50473
H         41.19491       33.04882       44.46008
O         45.39998       35.74997       46.60365
H         45.96888       35.00897       46.27984
H         45.98279       36.31133       47.17019

Ca 1.70



