%chk=loop2.cluster186.chk
%nprocshared=48
%mem=10GB
%nosave
#b3lyp/svp scf=(tight,noincore) Test 
#IOP(5/87=12) Density=Current Pop=(MK,readradii) iop(6/33=2) iop(6/42=6)

loop2.cluster186 

   -2  1 
C         69.79005       97.71247       92.07065
C         71.19714       97.45736       92.51115
O         71.37444       96.73490       93.46819
H         69.19397       98.07909       92.93328
H         69.74644       98.45950       91.25336
H         69.34980       96.75687       91.71294
N         72.25371       98.00016       91.84195
C         73.65667       97.74048       92.18462
C         74.01901       98.26010       93.57983
O         74.69567       97.55827       94.31794
C         74.56527       98.37791       91.11641
C         76.01396       98.02601       91.31096
O         76.38229       96.86461       91.22464
O         76.91363       98.99484       91.56239
H         72.05102       98.58907       91.02005
H         73.83719       96.64113       92.13529
H         74.43373       99.47971       91.14080
H         74.26450       98.01229       90.10819
N         73.52579       99.45444       94.03321
C         73.73957       99.97714       95.39239
C         73.25494       99.05388       96.52205
O         73.45055       99.38155       97.68368
C         75.17528      100.46807       95.59001
H         72.92887      100.00546       93.39951
H         73.12199      100.89537       95.49750
H         75.92290       99.65924       95.48743
H         75.38531      101.26842       94.84601
H         75.27124      100.93297       96.59705
N         72.51713       97.94263       96.24550
C         71.79942       97.13531       97.22127
C         72.70058       96.44527       98.23880
O         72.29663       96.27193       99.38181
C         70.68321       97.96989       97.88264
C         69.92017       98.82408       96.90106
O         70.21732      100.00180       96.76934
O         68.77603       98.37248       96.36115
H         72.34481       97.70182       95.27611
H         71.29922       96.32559       96.64281
H         71.12570       98.65486       98.63616
H         69.97633       97.30239       98.42093
N         73.94765       96.02468       97.88913
C         74.83128       95.34193       98.81981
C         74.47711       93.88404       98.99598
O         73.50049       93.41326       98.43181
H         74.30633       96.23494       96.94641
H         74.86832       95.87329       99.79688
H         75.85648       95.35170       98.39226
N         75.29898       93.09781       99.74857
C         75.17755       91.65009       99.89881
C         75.39063       90.93981       98.56876
O         74.72039       89.95627       98.27903
C         73.85572       91.24952      100.56621
C         73.60734       91.98350      101.85267
N         74.41517       91.79321      102.91946
O         72.65668       92.74642      101.93759
H         76.09995       93.54796      100.21689
H         76.01327       91.32762      100.55824
H         73.89010       90.16988      100.78175
H         73.01741       91.44539       99.86429
H         75.20182       91.12985      102.86905
H         74.23748       92.29585      103.80088
N         76.33550       91.40356       97.70392
C         76.59951       90.79625       96.41211
C         75.50136       90.99036       95.39049
O         75.70686       90.58192       94.25507
H         76.90165       92.22138       97.97197
H         76.83021       89.71715       96.53641
H         77.49655       91.29258       95.98263
N         74.33308       91.63831       95.68328
C         73.33702       91.92474       94.66689
C         71.99573       91.28128       94.96341
O         71.72970       90.85237       96.07859
C         73.17691       93.44949       94.51185
C         74.49315       94.09260       94.05196
O         72.18019       93.69429       93.56073
H         74.15625       91.98464       96.62936
H         73.66049       91.51897       93.68468
H         72.86980       93.88909       95.49248
H         72.13369       94.66346       93.44350
H         74.35394       95.18271       93.95446
H         75.30977       93.91952       94.78203
H         74.78569       93.69025       93.05924
N         71.10775       91.16736       93.93866
C         69.76838       90.60860       94.05487
C         68.87820       91.42663       94.97572
O         69.03120       92.63636       95.07673
C         69.08550       90.43823       92.65885
C         69.13640       91.73903       91.79847
C         69.71384       89.24236       91.92031
C         68.27359       91.67940       90.54312
H         71.43494       91.46818       93.01539
H         69.85768       89.59614       94.50984
H         68.02017       90.17318       92.84294
H         70.16732       91.96243       91.45444
H         68.78149       92.59870       92.40369
H         69.59694       88.32185       92.53314
H         69.20294       89.04518       90.95809
H         70.79519       89.40791       91.73179
H         68.60837       90.87747       89.85561
H         67.21260       91.51942       90.82217
H         68.36285       92.64396       89.99884
N         67.93720       90.77818       95.71581
C         67.06954       91.42273       96.69657
C         67.59891       91.12441       98.09498
O         67.61162       92.00722       98.93923
C         65.63120       90.89705       96.51207
C         64.63298       91.64543       97.34893
O         64.45842       92.84051       97.17011
O         63.90293       90.99555       98.27513
H         67.86697       89.75453       95.60548
H         67.06573       92.52525       96.54793
H         65.59845       89.81756       96.77490
H         65.32740       91.00553       95.44783
N         68.13284       89.90052       98.36438
C         68.84323       89.56407       99.58470
C         68.70130       88.07430       99.88790
O         68.23375       87.78161      100.98487
C         70.33416       90.00098       99.50214
C         71.20589       89.33006      100.54909
C         72.15502       88.36474      100.15491
C         71.08436       89.65192      101.90981
C         72.96108       87.73043      101.10538
C         71.90915       89.02845      102.85655
C         72.84314       88.06743      102.45490
H         68.15143       89.21361       97.61572
H         68.40020       90.11221      100.44795
H         70.42459       91.10617       99.56282
H         70.74948       89.76311       98.51416
H         72.27281       88.10828       99.11294
H         70.36811       90.39557      102.23168
H         73.68682       86.98923      100.79295
H         71.82774       89.29260      103.90240
H         73.47995       87.58822      103.18809
N         69.12407       87.05463       99.05955
C         69.68275       87.17574       97.70685
C         68.65715       86.95525       96.59365
O         69.04181       86.99687       95.42937
C         70.62870       85.96611       97.67143
C         69.81747       84.91015       98.41975
C         69.25561       85.71186       99.58597
H         70.24724       88.08902       97.50612
H         70.96513       85.66276       96.65565
H         71.52850       86.18240       98.28054
H         68.96885       84.60277       97.77116
H         70.37422       83.99881       98.71930
H         68.30162       85.28422       99.96356
H         70.00402       85.75239      100.41111
N         67.38130       86.57483       96.86975
C         66.53138       85.96067       95.85634
C         66.06123       86.91104       94.77499
O         65.50900       87.95673       95.08345
C         65.30533       85.26217       96.47562
C         65.69838       84.20957       97.52820
C         64.51540       83.37477       97.91442
O         64.53031       82.16949       97.72130
O         63.43433       83.94833       98.47554
H         67.07403       86.54941       97.85204
H         67.11589       85.13946       95.38065
H         64.78503       84.73738       95.64156
H         64.60329       86.00088       96.91957
H         66.09692       84.69252       98.44433
H         66.48824       83.54674       97.11172
N         66.11779       86.51865       93.47065
C         65.49598       87.27691       92.40550
H         64.50921       87.67370       92.73026
H         66.15901       88.10045       92.07195
H         65.30011       86.59917       91.54606
H         66.49405       85.58580       93.24411
Ca        67.29598       99.88738       95.56820
O         66.46942      101.32179       98.16582
H         66.99327      102.14132       98.34861
H         66.36132      100.89495       99.05234
O         64.19319      100.28503       95.02147
H         63.80609      100.31132       94.11046
H         63.65290       99.60839       95.50181
O         68.29642      102.40842       95.60152
H         68.66349      103.02495       94.92180
H         68.37686      102.89013       96.46145
O         66.26118       98.23203       97.89340
H         67.18172       98.17465       98.25276
H         65.99202       97.29040       97.75259
O         66.25764       97.70548       94.37885
H         66.64090       96.79405       94.38487
H         65.27887       97.57992       94.31240

Ca 1.70



