%chk=loop2.cluster56.chk
%nprocshared=48
%mem=10GB
%nosave
#b3lyp/svp scf=(tight,noincore) Test 
#IOP(5/87=12) Density=Current Pop=(MK,readradii) iop(6/33=2) iop(6/42=6)

loop2.cluster56 

   -2  1 
C         92.98272       79.06946       31.99304
C         94.14415       78.39199       32.65221
O         95.22634       78.95719       32.71091
H         92.15602       79.18352       32.72545
H         93.26982       80.06909       31.60642
H         92.63282       78.44051       31.14726
N         93.97736       77.14744       33.17373
C         95.07136       76.38195       33.76751
C         95.27743       76.74861       35.24221
O         95.99860       76.04482       35.94300
C         94.74578       74.87999       33.56941
C         95.94852       73.97089       33.56855
O         95.79735       72.78009       33.34746
O         97.19418       74.46226       33.72041
H         93.05323       76.69870       33.07669
H         95.99601       76.58257       33.18460
H         94.30043       74.75113       32.55835
H         93.99165       74.54932       34.31793
N         94.65812       77.83874       35.78513
C         94.74108       78.21308       37.19025
C         93.49200       78.99884       37.59482
O         92.72437       79.39487       36.72178
C         95.99668       79.07812       37.39950
H         94.10799       78.44546       35.16667
H         94.77864       77.28457       37.80414
H         95.91793       80.00342       36.78926
H         96.14798       79.39784       38.44663
H         96.90188       78.51957       37.08754
N         93.17223       79.26898       38.88681
C         93.82776       78.67834       40.04380
C         93.25737       77.33277       40.33554
O         92.31767       76.91290       39.68493
C         93.65433       79.59530       41.26482
C         94.56314       80.75945       41.09021
O         95.74500       80.61816       41.35113
O         94.20827       81.71313       40.22827
H         92.29954       79.76839       39.05725
H         94.89710       78.49911       39.86523
H         93.94638       79.08984       42.20720
H         92.58912       79.90648       41.38448
N         93.83322       76.58141       41.31447
C         93.36054       75.27257       41.70708
C         93.42033       74.29811       40.56700
O         94.34873       74.37949       39.77400
H         94.65890       76.95722       41.80239
H         92.34272       75.35501       42.11960
H         94.03536       74.89759       42.50582
N         92.52470       73.27982       40.43076
C         91.46045       72.95674       41.39334
C         90.24590       73.89713       41.34541
O         89.31675       73.69733       42.11712
C         91.04490       71.48778       41.15994
C         92.22754       70.57132       41.40241
N         92.75441       70.44295       42.64441
O         92.71684       69.95102       40.47004
H         92.68928       72.62532       39.64985
H         91.87031       73.01218       42.42582
H         90.69026       71.38474       40.10983
H         90.22250       71.17718       41.83754
H         92.34170       70.94442       43.44448
H         93.56791       69.83089       42.80732
N         90.19590       74.95448       40.48705
C         89.11055       75.92630       40.45550
C         89.01308       76.72767       41.73617
O         87.95923       76.72932       42.35721
H         90.95645       75.07650       39.81607
H         88.14862       75.41500       40.23500
H         89.30610       76.64643       39.63362
N         90.07463       77.47376       42.16562
C         90.05450       78.26491       43.39032
C         90.14326       79.74332       43.00216
O         90.97306       80.46036       43.53998
C         91.27062       77.82759       44.27075
C         91.13818       78.21344       45.74389
O         91.44956       76.43667       44.21054
H         90.93031       77.48747       41.60314
H         89.09930       78.09015       43.93214
H         92.17172       78.32111       43.82869
H         92.42760       76.27311       44.29563
H         90.36601       77.57241       46.22308
H         92.10712       78.01858       46.25481
H         90.86807       79.27789       45.87986
N         89.37597       80.23827       41.98369
C         89.55951       81.59198       41.44827
C         88.94856       82.64306       42.38052
O         88.35286       82.29266       43.38927
C         88.99815       81.74295       39.98466
C         89.77621       80.95270       38.90253
C         87.48739       81.51188       39.87766
C         89.68960       79.42488       38.96755
H         88.72784       79.59568       41.51056
H         90.65223       81.79743       41.36764
H         89.16066       82.79232       39.67135
H         90.83321       81.28282       38.93755
H         89.39308       81.25745       37.90473
H         87.20630       80.47338       40.13477
H         86.94929       82.20873       40.55129
H         87.15685       81.71684       38.83709
H         90.22415       78.98571       38.09861
H         90.17724       79.03228       39.87797
H         88.63687       79.08227       38.91942
N         89.04392       83.96695       42.06107
C         88.45120       85.05779       42.83394
C         87.30317       85.70063       42.05045
O         86.93872       85.19228       41.00788
C         89.53682       86.08846       43.23271
C         90.30113       86.65268       42.07287
O         91.26287       85.91665       41.49901
O         90.12982       87.80666       41.71605
H         89.53326       84.21899       41.20056
H         87.99997       84.67822       43.77444
H         90.26980       85.62572       43.92648
H         89.07223       86.92271       43.79210
N         86.64921       86.79548       42.54742
C         85.45176       87.40636       41.95671
C         85.68874       87.96633       40.55540
O         85.22198       87.37331       39.58998
C         84.25317       86.43970       42.05400
C         82.94902       87.17668       42.29873
C         82.21100       87.76483       41.25586
C         82.46988       87.27979       43.61931
C         80.99771       88.41391       41.53675
C         81.27175       87.93742       43.89298
C         80.52940       88.49555       42.85309
H         86.97163       87.19209       43.43889
H         85.18300       88.24642       42.63149
H         84.43010       85.83698       42.96965
H         84.19194       85.69409       41.23187
H         82.55910       87.70805       40.23308
H         83.03465       86.85603       44.44061
H         80.41576       88.85147       40.73586
H         80.91898       88.00883       44.91419
H         79.59234       88.99279       43.07010
N         86.41178       89.11271       40.35364
C         86.76814       89.64765       39.04689
C         87.30864       88.60696       38.07566
O         86.92270       88.59880       36.91825
C         87.85316       90.67629       39.41423
C         87.32879       91.21870       40.72959
C         86.87667       89.94760       41.44415
H         85.88602       90.16229       38.60517
H         88.81208       90.15827       39.64828
H         88.04407       91.44454       38.63479
H         88.02279       91.85355       41.32042
H         86.42453       91.82392       40.48433
H         87.69880       89.42799       41.97823
H         86.06317       90.23247       42.14678
N         88.19583       87.67888       38.51430
C         88.78506       86.64922       37.66040
C         87.75071       85.70615       37.05806
O         87.80802       85.44391       35.86402
C         89.80012       85.88590       38.50560
C         90.63457       84.88733       37.70794
C         91.76659       84.47211       38.57158
O         91.51155       83.97811       39.78236
O         92.92025       84.67551       38.22904
H         88.47063       87.71088       39.50816
H         89.36004       87.13717       36.84363
H         89.28600       85.37594       39.34722
H         90.49394       86.64660       38.93117
H         91.04888       85.36689       36.79792
H         90.02104       84.00622       37.41972
N         86.75861       85.18317       37.82616
C         85.73999       84.28622       37.32221
H         84.79962       84.85424       37.16402
H         86.04585       83.78755       36.37889
H         85.53845       83.49827       38.07960
H         86.67368       85.50224       38.78960
Ca        93.23737       83.51349       41.01856
O         92.47197       82.85552       43.48197
H         91.49298       82.85029       43.62111
H         92.84485       82.26876       44.18468
O         93.88448       86.84173       40.69959
H         93.03339       87.07769       40.25271
H         94.08301       87.62302       41.27388
O         95.98539       84.37487       39.46536
H         95.78143       84.70422       38.55480
H         96.73437       83.73935       39.33960
O         95.82042       83.54160       42.58848
H         96.78185       83.51585       42.81466
H         95.77525       83.05266       41.73353

Ca 1.70



