%chk=loop1.cluster149.chk
%nprocshared=48
%mem=10GB
%nosave
#b3lyp/svp scf=(tight,noincore) Test 
#IOP(5/87=12) Density=Current Pop=(MK,readradii) iop(6/33=2) iop(6/42=6)

loop1.cluster149 

   0  1 
C         41.45358       -1.07336       38.02190
C         40.89019       -2.45510       38.09684
O         41.08603       -3.23339       37.17787
H         42.47233       -1.10966       37.58237
H         40.79332       -0.42534       37.41290
H         41.55225       -0.65135       39.04542
N         40.14176       -2.82120       39.16815
C         39.65614       -4.17366       39.38409
C         38.15534       -4.26826       39.20467
O         37.56616       -5.20557       39.71526
C         40.11695       -4.66858       40.78262
C         39.55079       -3.92189       41.96165
O         38.84488       -4.59168       42.89375
O         39.77725       -2.73268       42.11713
H         39.90452       -2.09644       39.85862
H         40.09407       -4.88722       38.64990
H         41.22386       -4.61390       40.83660
H         39.82192       -5.72936       40.90356
N         37.45466       -3.32426       38.49957
C         36.00280       -3.40691       38.38306
C         35.52084       -3.13683       36.95839
O         35.56841       -1.98385       36.55563
C         35.37735       -2.42729       39.40156
C         35.66797       -2.92337       40.83193
C         35.04315       -2.05525       41.92638
C         35.39335       -2.58272       43.33403
N         36.76857       -2.25587       43.71465
H         37.93717       -2.50723       38.10245
H         35.66998       -4.40360       38.67826
H         34.27845       -2.37702       39.25371
H         35.80303       -1.40710       39.25523
H         36.76056       -2.96925       40.98181
H         35.24814       -3.95049       40.93428
H         33.94196       -2.09983       41.79330
H         35.37051       -0.99712       41.83675
H         35.22977       -3.68458       43.38087
H         34.71774       -2.10891       44.07563
H         36.98318       -2.66767       44.65162
H         37.44066       -2.63336       43.02364
H         36.88950       -1.21862       43.76332
N         35.01779       -4.10519       36.10994
C         35.01485       -5.56809       36.29829
C         34.11923       -6.04543       37.45099
O         33.59484       -5.20467       38.16931
C         36.47095       -6.07140       36.43392
C         37.40290       -5.69308       35.31589
O         36.98164       -5.30917       34.23522
O         38.72936       -5.73499       35.54624
H         34.67192       -3.77570       35.19359
H         34.57927       -6.00779       35.37302
H         36.52954       -7.15690       36.53563
H         36.90690       -5.68763       37.35819
N         33.81635       -7.36501       37.68716
C         34.15284       -8.49654       36.82238
C         34.58589       -9.70959       37.63948
O         33.80366      -10.11675       38.48306
H         33.19565       -7.56536       38.48673
H         34.79407       -8.22254       35.97966
H         33.20243       -8.82059       36.35037
N         35.77172      -10.37968       37.48788
C         36.90041       -9.97316       36.66231
C         37.89995       -9.17773       37.49808
O         38.79947       -8.58659       36.92911
C         37.55985      -11.21408       36.00534
C         37.89347      -12.30492       37.00235
O         37.29586      -13.36684       36.96038
O         38.80339      -12.10852       37.96860
H         35.92998      -11.16786       38.13637
H         36.57181       -9.31639       35.83543
H         38.47184      -10.92918       35.43263
H         36.83299      -11.63565       35.27894
N         37.78060       -9.10290       38.86218
C         38.64053       -8.27859       39.70249
C         40.12011       -8.61307       39.70787
O         40.86683       -7.94198       40.40807
H         37.02254       -9.60304       39.33813
H         38.26151       -8.34562       40.74602
H         38.54973       -7.24235       39.35737
N         40.63149       -9.61546       38.95157
C         42.05722       -9.87856       38.81457
C         42.71073       -8.75294       38.04327
O         42.09969       -8.25797       37.10246
C         42.25992      -11.19888       38.03175
C         43.72931      -11.59026       37.89729
O         41.73360      -11.08954       36.73730
H         39.98676      -10.19489       38.41869
H         42.51408      -10.00918       39.82124
H         41.75281      -12.01760       38.59485
H         40.81348      -11.44996       36.74120
H         43.79330      -12.56886       37.37725
H         44.28000      -10.84265       37.28649
H         44.20452      -11.67571       38.89566
N         43.97641       -8.33486       38.33946
C         44.64517       -7.32310       37.53243
C         46.04704       -7.75260       37.11211
O         46.96282       -7.74487       37.92229
C         44.55047       -5.93546       38.21696
C         45.12224       -4.83992       37.28835
C         45.18421       -5.90661       39.62160
C         44.75072       -3.42961       37.73952
H         44.47463       -8.75149       39.14150
H         44.07721       -7.19852       36.58462
H         43.46129       -5.73912       38.34335
H         44.68757       -4.96865       36.27353
H         46.22629       -4.93798       37.20398
H         45.01645       -4.92684       40.10948
H         44.71380       -6.66914       40.27683
H         46.27598       -6.08820       39.58326
H         45.19364       -3.17905       38.72281
H         45.11915       -2.69583       36.99354
H         43.64746       -3.34111       37.80374
N         46.26753       -8.14942       35.82624
C         47.58747       -8.42940       35.26675
C         47.76014       -7.74211       33.89821
O         48.74025       -8.01390       33.21813
C         47.79936       -9.96819       35.16638
C         46.80727      -10.65837       34.22770
O         47.68707      -10.57462       36.43171
H         45.44986       -8.27744       35.21088
H         48.39506       -8.05318       35.93502
H         48.82331      -10.15648       34.76956
H         48.24011      -10.05806       37.07378
H         46.83064      -10.20385       33.22024
H         47.08398      -11.72898       34.12253
H         45.77589      -10.60027       34.63389
N         46.82255       -6.85685       33.42582
C         46.80970       -6.27260       32.08275
C         46.60416       -7.35452       31.02576
O         46.52513       -8.52520       31.37503
C         48.05207       -5.38537       31.76486
C         48.52137       -4.56246       32.96737
O         47.70295       -4.50245       30.72569
H         46.04241       -6.58030       34.03503
H         45.92349       -5.59863       32.05079
H         48.90259       -6.02804       31.44204
H         48.51595       -4.00402       30.45457
H         48.96761       -5.22967       33.73317
H         49.31598       -3.85413       32.64681
H         47.67962       -3.99092       33.40667
N         46.52486       -7.03645       29.70139
C         46.53584       -8.04046       28.65607
C         45.29375       -8.15660       27.76534
O         45.35849       -9.02842       26.90900
C         47.76231       -7.78132       27.74024
C         49.10105       -7.84456       28.48792
C         50.28449       -7.75778       27.51174
C         51.60628       -8.02407       28.24444
N         52.75403       -7.88073       27.34842
H         46.59919       -6.05998       29.41485
H         46.66038       -9.05430       29.09898
H         47.66061       -6.79213       27.23839
H         47.78898       -8.56701       26.95435
H         49.15283       -8.81319       29.02823
H         49.17340       -7.01630       29.22637
H         50.29641       -6.75864       27.02356
H         50.17255       -8.53507       26.72237
H         51.57831       -9.06369       28.64227
H         51.72293       -7.32392       29.10057
H         53.60655       -8.25240       27.82681
H         52.60577       -8.41589       26.46209
H         52.90514       -6.86940       27.12907
N         44.13566       -7.41808       27.79615
C         43.65764       -6.34739       28.66655
C         44.50822       -5.09854       28.63815
O         44.73831       -4.47881       29.66826
C         43.10963       -6.89061       30.00711
C         42.07978       -5.93357       30.64077
C         41.35799       -6.60153       31.77132
O         40.14833       -6.76582       31.71541
O         42.04389       -7.03402       32.84372
H         43.45883       -7.66728       27.05623
H         42.73667       -5.99789       28.15111
H         43.90797       -7.17032       30.72365
H         42.54567       -7.81806       29.75618
H         41.32015       -5.65195       29.87594
H         42.56761       -5.00789       31.00610
N         44.97678       -4.65743       27.43628
C         45.71061       -3.42416       27.25812
H         46.71211       -3.64553       26.83326
H         45.15186       -2.79553       26.53249
H         45.82962       -2.85163       28.20052
H         44.78896       -5.22059       26.59475
Ca        40.05580       -7.38317       34.78160
O         37.96709       -8.57979       33.55052
H         37.95546       -8.07304       32.70076
H         37.91372       -9.53030       33.28407
O         40.73440       -9.99808       33.87080
H         40.73052      -10.64641       33.12580
H         41.32629      -10.41261       34.54004
O         41.85638       -5.48650       35.40924
H         41.82664       -5.37728       36.39138
H         42.49455       -4.80674       35.08293

Ca 1.70



