%chk=loop4.cluster110.chk
%nprocshared=48
%mem=10GB
%nosave
#b3lyp/svp scf=(tight,noincore) Test 
#IOP(5/87=12) Density=Current Pop=(MK,readradii) iop(6/33=2) iop(6/42=6)

loop4.cluster110 

   -3  1 
C         57.05048       22.68682       64.31128
C         57.45272       22.01914       65.59471
O         57.93675       22.69300       66.49138
H         56.24321       23.42444       64.50628
H         57.92622       23.20557       63.87126
H         56.67364       21.94559       63.57509
N         57.23648       20.68219       65.76036
C         57.56195       19.94139       66.97824
C         56.93391       20.63045       68.17252
O         57.62601       20.94817       69.13479
C         59.08825       19.73447       67.12904
C         59.73665       19.23105       65.86860
O         60.89286       19.80399       65.50713
O         59.07287       18.65254       65.02035
H         56.77580       20.16071       65.00034
H         57.11532       18.92615       66.87608
H         59.31111       19.04010       67.96800
H         59.56555       20.71061       67.36351
N         55.60485       20.92476       68.15279
C         54.92879       21.64654       69.22181
C         54.22736       20.63509       70.09235
O         53.63837       19.70693       69.55152
C         53.92303       22.68932       68.65158
C         54.68711       23.75035       67.82234
C         53.06925       23.33738       69.76641
C         53.80890       24.91099       67.35697
H         55.04205       20.60136       67.34852
H         55.68684       22.19291       69.81270
H         53.20379       22.16261       67.98569
H         55.10933       23.24341       66.92979
H         55.52970       24.18058       68.40889
H         52.51828       22.56473       70.34270
H         53.68393       23.95172       70.45238
H         52.28217       23.98544       69.33222
H         54.37160       25.54400       66.64162
H         52.88624       24.53273       66.87052
H         53.53540       25.55056       68.22489
N         54.25375       20.69015       71.45246
C         54.80589       21.78744       72.25565
C         56.14093       21.40743       72.85446
O         57.04569       22.23278       72.83501
C         53.77806       22.28808       73.30028
C         53.06155       21.19564       74.04851
O         51.84358       21.12100       73.99125
O         53.74824       20.28758       74.76360
H         53.82886       19.90000       71.95781
H         55.02006       22.70085       71.67476
H         53.00223       22.88844       72.77359
H         54.28483       22.97279       74.01564
N         56.36944       20.16209       73.34933
C         57.64629       19.76927       73.91656
C         57.93209       20.54237       75.17962
O         57.11337       20.51677       76.08936
H         55.62550       19.45348       73.29712
H         58.45230       19.90972       73.16082
H         57.60309       18.69205       74.17419
N         59.07544       21.27659       75.29402
C         59.37795       22.11045       76.45248
C         59.32746       23.59042       76.07216
O         59.47704       24.42613       76.95072
C         60.78338       21.76618       76.99297
C         60.92934       20.32211       77.38769
O         60.24730       19.83297       78.44057
O         61.69624       19.59616       76.77441
H         59.74344       21.27846       74.50665
H         58.62426       21.95352       77.25787
H         61.03002       22.39295       77.87807
H         61.52132       21.99675       76.19368
N         59.10445       23.98899       74.77924
C         59.02596       25.38584       74.38889
C         60.32657       26.13376       74.58416
O         60.28073       27.34754       74.73655
H         58.96296       23.29545       74.03842
H         58.21229       25.87236       74.96952
H         58.74774       25.45556       73.31440
N         61.53516       25.48959       74.54873
C         62.81195       26.15210       74.81788
C         63.11117       27.33366       73.89075
O         63.85114       28.22222       74.28633
C         62.87964       26.57271       76.30666
C         62.91357       25.34750       77.23332
C         63.04835       25.71977       78.68910
N         63.22986       24.75089       79.61383
O         63.01234       26.89104       79.03933
H         61.55498       24.47574       74.35687
H         63.63885       25.42636       74.65877
H         62.02783       27.23932       76.56512
H         63.82329       27.12982       76.49060
H         63.79875       24.73563       76.95618
H         62.00621       24.72476       77.10170
H         63.28201       23.76161       79.32979
H         63.34080       24.99511       80.60881
N         62.57795       27.40482       72.63602
C         62.74167       28.60404       71.81087
C         64.04023       28.54032       71.00701
O         64.24820       27.58257       70.27578
C         61.54853       28.81746       70.83515
C         60.17611       28.55689       71.47976
C         61.56177       30.27185       70.32167
H         61.96318       26.64864       72.31354
H         62.72326       29.48816       72.49095
H         61.65069       28.11634       69.97828
H         60.03448       29.18555       72.38368
H         59.37108       28.78065       70.74859
H         60.05160       27.49179       71.75784
H         60.77764       30.41284       69.54993
H         61.35150       30.97477       71.16075
H         62.54085       30.54859       69.88119
N         64.94809       29.55366       71.08499
C         66.20120       29.58267       70.31862
C         65.99102       29.81817       68.82016
O         64.93940       30.29031       68.40631
C         67.09528       30.69816       70.92795
C         68.33299       31.11369       70.16272
N         69.31556       30.23409       69.86729
O         68.44995       32.28066       69.81709
H         64.74420       30.32793       71.73481
H         66.71979       28.60551       70.44584
H         67.38603       30.37281       71.95024
H         66.47375       31.61534       71.02884
H         69.23942       29.24465       70.13949
H         70.14482       30.54888       69.34041
N         66.99389       29.49226       67.94953
C         66.98506       29.78400       66.52000
C         67.99970       28.91100       65.78624
O         69.13159       28.75293       66.22908
C         67.24865       31.28256       66.24105
C         67.52920       31.54189       64.76711
C         66.61369       31.14806       63.77323
C         68.74414       32.13616       64.37913
C         66.92518       31.31482       62.41978
C         69.04321       32.31862       63.02575
C         68.13838       31.89795       62.04147
O         68.42790       32.04678       60.73257
H         67.81116       28.99538       68.32845
H         65.98465       29.52833       66.10544
H         68.13046       31.60464       66.83649
H         66.37233       31.87560       66.57657
H         65.67605       30.68129       64.04405
H         69.46442       32.44984       65.12431
H         66.22703       30.98159       61.66343
H         69.98364       32.77509       62.74249
H         69.26082       32.44209       60.43720
N         67.60776       28.30116       64.63608
C         68.39409       27.32483       63.90289
C         68.36710       27.56481       62.36884
O         69.45010       27.76888       61.83913
C         67.98974       25.92036       64.40169
C         68.82486       24.77766       63.79975
C         68.45373       23.42962       64.36934
O         68.98597       22.42279       63.93057
O         67.55012       23.32000       65.36477
H         66.65494       28.48915       64.33785
H         69.46169       27.41619       64.21323
H         66.91218       25.74458       64.23237
H         68.14548       25.90801       65.50569
H         69.90620       24.94761       64.00055
H         68.66399       24.75538       62.70319
N         67.25281       27.54100       61.54675
C         65.86437       27.28299       61.93719
C         64.85946       28.17983       61.20787
O         65.21630       28.86331       60.25568
C         65.51982       25.80599       61.70635
C         65.50254       25.40539       60.23070
C         65.17110       23.95454       60.10158
O         66.06236       23.12293       60.04123
O         63.88755       23.57286       59.97687
H         67.42832       27.66347       60.53544
H         65.71607       27.43513       62.99712
H         64.52575       25.59528       62.15769
H         66.26973       25.18292       62.22968
H         66.48741       25.60442       59.75941
H         64.73083       25.98839       59.68458
N         63.55530       28.19029       61.60739
C         62.52567       28.93698       60.91257
H         61.56940       28.86233       61.47571
H         62.80032       30.00894       60.82762
H         62.36115       28.50858       59.89999
H         63.28308       27.64872       62.44061
Ca        61.04607       20.61352       63.41896
O         63.51743       20.78399       65.20916
H         64.24624       21.34872       65.56599
H         63.62651       19.91127       65.66244
O         63.57965       21.48734       62.47672
H         63.22232       22.04809       61.74697
H         64.39702       21.95436       62.78023
O         61.42460       22.95882       65.40292
H         61.01735       23.84109       65.21466
H         61.63644       22.98077       66.36988
O         60.83709       23.28502       62.04286
H         61.37210       24.06533       61.75149
H         60.56538       22.83986       61.20099
O         62.83463       18.48527       63.29502
H         62.62285       17.73436       62.68756
H         62.73328       18.10940       64.20513

Ca 1.70



