%chk=loop2.cluster83.chk
%nprocshared=48
%mem=10GB
%nosave
#b3lyp/svp scf=(tight,noincore) Test 
#IOP(5/87=12) Density=Current Pop=(MK,readradii) iop(6/33=2) iop(6/42=6)

loop2.cluster83 

   -2  1 
C         72.47295      107.68217        4.90336
C         72.66398      109.10514        5.33894
O         71.70931      109.72087        5.78055
H         71.76383      107.64522        4.04988
H         73.43267      107.22609        4.58344
H         72.05980      107.08738        5.74478
N         73.89133      109.69144        5.27335
C         74.12462      111.07449        5.68061
C         73.47499      112.08401        4.73386
O         73.16539      113.18027        5.18028
C         75.63569      111.32813        5.78294
C         75.97711      112.69525        6.30419
O         75.61343      113.05801        7.54876
O         76.60780      113.47353        5.60765
H         74.69180      109.12029        4.96419
H         73.68541      111.19618        6.69332
H         76.08023      111.18426        4.77498
H         76.07881      110.57846        6.47453
N         73.19449      111.76948        3.42525
C         72.46001      112.66455        2.52120
C         71.04190      112.96007        3.04271
O         70.37664      113.84222        2.52094
C         73.27213      113.94291        2.23731
H         73.47719      110.84847        3.06130
H         72.34862      112.16596        1.53300
H         73.43187      114.56219        3.14161
H         74.26423      113.66829        1.81511
H         72.75190      114.56525        1.47664
N         70.53008      112.22845        4.07939
C         69.26299      112.45704        4.75680
C         69.24305      113.81083        5.41092
O         68.32595      114.59041        5.17583
C         68.03230      112.15093        3.88349
C         67.98947      110.68870        3.55781
O         67.02941      109.91076        4.08713
O         68.84993      110.18659        2.85349
H         71.08091      111.45900        4.44437
H         69.20585      111.73640        5.60667
H         67.99722      112.76240        2.95865
H         67.12428      112.37829        4.48646
N         70.19982      114.12618        6.33087
C         70.12689      115.33385        7.12530
C         69.39958      115.07180        8.42105
O         69.06380      113.93131        8.72199
H         70.92372      113.42699        6.56385
H         69.53366      116.10310        6.58502
H         71.13891      115.76510        7.28376
N         69.05061      116.12517        9.20613
C         68.17182      116.03816       10.36568
C         68.72817      115.17940       11.48775
O         67.95347      114.53136       12.17753
C         66.74548      115.59066        9.94434
C         66.16664      116.47928        8.87103
N         65.94179      117.79247        9.10906
O         65.89063      116.00546        7.77875
H         69.36278      117.06692        8.91974
H         68.09174      117.06118       10.78891
H         66.05976      115.61000       10.81880
H         66.77953      114.54379        9.57014
H         66.15656      118.20484       10.02823
H         65.54360      118.39404        8.37284
N         70.06977      115.13394       11.73907
C         70.60017      114.36369       12.85340
C         71.18743      113.06521       12.38418
O         72.27221      112.71490       12.83175
H         70.72773      115.62049       11.11423
H         69.80389      114.11594       13.58362
H         71.34884      114.97213       13.40931
N         70.53372      112.29384       11.46037
C         71.08605      111.04056       10.96963
C         70.08388      109.89968       10.98643
O         68.90467      110.08871       10.71891
C         71.70467      111.19875        9.56233
C         72.85900      112.20210        9.60951
O         72.23053      109.96799        9.13140
H         69.66120      112.64387       11.03631
H         71.92907      110.72547       11.62283
H         70.95173      111.56409        8.82372
H         71.48894      109.47142        8.69682
H         73.39312      112.21602        8.64464
H         72.48620      113.22538        9.81661
H         73.58945      111.91086       10.39707
N         70.56965      108.64471       11.17917
C         69.80594      107.40213       11.10919
C         69.20771      107.22333        9.74003
O         69.89309      107.39780        8.75294
C         70.76954      106.20164       11.39476
C         71.32165      106.26455       12.84268
C         70.15788      104.82090       11.07895
C         70.30311      105.95211       13.94040
H         71.58200      108.56895       11.34623
H         68.98869      107.41057       11.85912
H         71.64121      106.31004       10.71011
H         71.73216      107.27380       13.03403
H         72.17150      105.55758       12.94961
H         70.00444      104.71094        9.98235
H         70.85711      104.01568       11.38514
H         69.18166      104.67787       11.58664
H         70.72576      106.27025       14.91608
H         69.34405      106.48620       13.79986
H         70.10823      104.86048       13.97838
N         67.92301      106.78767        9.64082
C         67.28797      106.49410        8.36605
C         65.81711      106.32340        8.64822
O         65.43100      105.36972        9.30111
C         67.92797      105.24668        7.71191
C         67.28052      104.86915        6.41465
O         67.20669      105.67951        5.51126
O         66.80095      103.62433        6.23369
H         67.38341      106.65143       10.50656
H         67.40873      107.37781        7.71039
H         67.87204      104.38083        8.40687
H         69.00005      105.44822        7.51000
N         64.96079      107.31739        8.28078
C         63.59845      107.37117        8.78752
C         63.28342      108.83810        9.07405
O         62.42959      109.40517        8.40766
C         62.70383      106.63633        7.77624
C         61.39928      106.12655        8.34122
C         60.29202      106.97048        8.51634
C         61.27810      104.75837        8.65714
C         59.07594      106.44417        8.96965
C         60.06905      104.24307        9.12206
C         58.96467      105.08222        9.26846
H         65.32578      108.13102        7.76576
H         63.52342      106.80043        9.73417
H         63.27811      105.72785        7.48821
H         62.56111      107.20271        6.83215
H         60.35586      108.02141        8.27779
H         62.12292      104.08946        8.54068
H         58.21673      107.09094        9.08448
H         59.98775      103.18923        9.35690
H         58.02267      104.67579        9.61183
N         64.01140      109.55547        9.99815
C         65.02666      108.99831       10.88237
C         64.43394      107.97996       11.84328
O         64.96755      106.88635       11.95700
C         65.54566      110.22399       11.65310
C         65.28706      111.35846       10.67568
C         63.90791      110.99143       10.12674
H         65.86444      108.59213       10.27827
H         64.90325      110.42729       12.53652
H         66.59641      110.12695       12.00461
H         65.36238      112.37770       11.11220
H         66.02557      111.26957        9.84589
H         63.10731      111.22670       10.86183
H         63.74062      111.51947        9.16355
N         63.28853      108.28636       12.53735
C         62.57448      107.38742       13.44772
C         63.48539      106.43770       14.19889
O         63.42875      105.23368       13.98281
C         61.41588      106.65049       12.73633
C         60.32705      107.55068       12.12614
C         59.49552      108.28595       13.14845
O         58.29876      108.05714       13.23556
O         60.04902      109.21799       13.94603
H         62.84098      109.19459       12.34474
H         62.11764      108.00206       14.24836
H         60.91270      105.97648       13.46746
H         61.84594      106.02093       11.92846
H         59.64150      106.88054       11.56810
H         60.76957      108.26678       11.40324
N         64.30017      106.92523       15.17279
C         65.09973      106.06161       16.01389
H         66.07199      106.54993       16.22691
H         64.56201      105.89822       16.97190
H         65.29685      105.07875       15.53558
H         64.25775      107.92956       15.40311
Ca        67.16214      107.70883        3.66887
O         68.58878      107.47414        1.21635
H         68.34178      107.05201        0.35626
H         69.57503      107.54705        1.19007
O         66.11599      105.59077        1.96709
H         65.28963      105.53845        1.42546
H         66.84535      105.39711        1.32694
O         68.85307      108.24409        5.82315
H         69.48687      108.88467        5.42365
H         69.40906      107.68392        6.41413
O         69.43450      105.87330        3.75572
H         69.05235      104.97264        3.90459
H         70.34452      105.70072        3.41130
O         65.69845      109.00548        1.69402
H         64.73311      109.21433        1.64599
H         66.14769      109.74416        1.21227
O         64.63441      107.42449        4.72478
H         64.77128      106.71070        5.39618
H         63.90750      107.08856        4.14422

Ca 1.70



