%chk=loop3.cluster26.chk
%nprocshared=48
%mem=10GB
%nosave
#b3lyp/svp scf=(tight,noincore) Test 
#IOP(5/87=12) Density=Current Pop=(MK,readradii) iop(6/33=2) iop(6/42=6)

loop3.cluster26 

   0  1 
C         66.11053       49.80162       33.49524
C         65.69605       48.54857       34.18251
O         66.35776       47.53898       34.03227
H         67.06774       49.64893       32.95495
H         65.31865       50.07456       32.76624
H         66.22741       50.61157       34.24329
N         64.59040       48.55004       34.96806
C         64.05057       47.35696       35.60103
C         63.43743       46.49071       34.50443
O         62.22875       46.53360       34.30577
C         62.98591       47.82042       36.61606
C         62.40369       46.73121       37.43877
O         61.31510       46.99772       38.16857
O         62.90447       45.62245       37.46750
H         64.09833       49.44684       35.10525
H         64.83972       46.82097       36.17586
H         62.15800       48.31642       36.06855
H         63.41768       48.55633       37.32925
N         64.22730       45.72446       33.70084
C         63.71346       45.02252       32.53311
C         63.24197       43.61418       32.85681
O         62.74004       42.93629       31.97455
C         64.72559       45.05648       31.37853
C         66.07684       44.40616       31.70596
C         66.80237       44.02729       30.41020
C         68.28916       43.73992       30.65213
N         69.07874       44.96494       30.49833
H         65.21079       45.58789       33.96224
H         62.81061       45.55323       32.15581
H         64.92463       46.11133       31.07865
H         64.24852       44.54487       30.51689
H         65.94581       43.46245       32.28389
H         66.67128       45.10931       32.32690
H         66.71040       44.80841       29.62374
H         66.29047       43.11395       30.03397
H         68.64574       43.01171       29.89310
H         68.44214       43.28372       31.65708
H         70.07193       44.77764       30.76131
H         69.05763       45.25369       29.49072
H         68.69924       45.74345       31.08327
N         63.29052       43.16146       34.13819
C         62.63954       41.93875       34.58937
C         61.43417       42.27982       35.46165
O         60.74550       41.36371       35.89528
C         63.66627       41.04275       35.30119
C         64.40130       41.68146       36.45357
O         64.01992       42.86901       36.97649
O         65.36842       41.10719       36.90897
H         63.71483       43.75733       34.85128
H         62.24327       41.36063       33.72412
H         64.43208       40.77761       34.53836
H         63.19387       40.09777       35.64570
N         61.06781       43.58008       35.69501
C         59.84701       43.94753       36.38532
C         59.85619       43.63977       37.86320
O         58.78613       43.57819       38.44989
H         61.62004       44.34872       35.30146
H         59.00376       43.41799       35.89185
H         59.66474       45.03761       36.27079
N         61.02439       43.47557       38.54862
C         61.06245       43.00508       39.92857
C         61.07224       44.13830       40.96609
O         61.30236       43.87735       42.13809
C         62.20349       41.96584       40.05863
C         63.52885       42.51141       40.52344
N         64.11907       41.98470       41.62304
O         64.07404       43.41718       39.91501
H         61.91296       43.56301       38.04589
H         60.14279       42.40737       40.10658
H         62.33393       41.44379       39.08207
H         61.88462       41.18889       40.78136
H         63.67046       41.21160       42.13763
H         65.02607       42.34011       41.95598
N         60.73829       45.41118       40.60274
C         60.66541       46.53572       41.52571
C         61.99694       47.14907       41.90254
O         61.98992       48.07116       42.70940
H         60.40923       45.56951       39.65099
H         60.07715       46.24736       42.42227
H         60.11925       47.36469       41.02317
N         63.17736       46.73159       41.35713
C         64.45181       47.37400       41.67659
C         65.26334       47.63886       40.42358
O         65.18941       46.86259       39.47786
C         65.28238       46.46434       42.59471
C         64.52109       46.09802       43.84225
C         64.43057       46.98394       44.92962
C         63.87823       44.85572       43.91085
C         63.71269       46.61499       46.07491
C         63.15158       44.49547       45.04341
C         63.06955       45.37183       46.13323
O         62.37457       45.02770       47.23598
H         63.18073       45.92892       40.71039
H         64.29432       48.33278       42.22119
H         66.24957       46.94161       42.87241
H         65.52749       45.53885       42.03025
H         64.92251       47.94854       44.89497
H         63.92671       44.17699       43.07437
H         63.65373       47.29390       46.91654
H         62.65224       43.53564       45.07113
H         61.91854       44.17594       47.30169
N         66.21531       48.60755       40.43807
C         67.21982       48.76560       39.39551
C         68.53466       48.24644       39.93489
O         68.93888       48.64756       41.02087
C         67.38658       50.26229       39.00502
C         66.10238       50.80224       38.33935
C         68.60670       50.44751       38.06666
C         66.12388       52.32388       38.17300
H         66.30166       49.19338       41.28488
H         66.95726       48.19450       38.47327
H         67.58029       50.83592       39.93946
H         65.22286       50.56343       38.97351
H         65.96011       50.31300       37.34992
H         69.53995       50.12667       38.57035
H         68.48256       49.85083       37.13676
H         68.78286       51.50562       37.80306
H         66.96234       52.66616       37.53570
H         65.18137       52.65613       37.69297
H         66.20624       52.80874       39.16987
N         69.31540       47.44205       39.16219
C         70.67062       47.05735       39.53294
C         71.69986       47.75626       38.66062
O         71.33994       48.52069       37.78203
C         70.83590       45.53558       39.42530
O         70.65878       45.12643       38.09488
H         68.96186       47.16251       38.23778
H         70.88599       47.36152       40.57943
H         70.09626       45.05293       40.09061
H         71.84522       45.23004       39.77103
H         70.53268       44.14343       38.11464
N         73.02150       47.54178       38.89097
C         74.12661       48.13310       38.13798
C         74.15632       47.69933       36.67432
O         74.29343       48.54792       35.80542
C         75.43305       47.71372       38.81892
H         73.26037       46.92842       39.68453
H         74.07253       49.24497       38.18977
H         76.31295       48.15606       38.31082
H         75.41985       48.06596       39.87438
H         75.52681       46.60579       38.82526
N         74.04780       46.38155       36.33606
C         74.03161       45.90617       34.94687
C         72.86936       46.52116       34.19306
O         73.05757       47.06981       33.11572
C         73.91004       44.37780       34.93055
H         73.92935       45.69406       37.09511
H         74.98418       46.16703       34.43500
H         74.79988       43.93400       35.42605
H         72.99862       44.04321       35.47157
H         73.86750       44.00060       33.88637
N         71.63951       46.52007       34.76450
C         70.47143       47.19895       34.21005
C         70.75617       48.66500       33.93326
O         70.39212       49.15225       32.87162
C         69.29985       47.02822       35.20676
C         68.82191       45.56659       35.11143
C         67.68498       45.08086       35.94940
O         67.21415       43.98804       35.68047
O         67.17369       45.74559       36.99489
H         71.55144       46.07155       35.68952
H         70.17259       46.74504       33.23673
H         68.47866       47.71024       34.93786
H         69.63388       47.31225       36.21864
H         69.65619       44.86454       35.31124
H         68.49108       45.42450       34.06138
N         71.46537       49.40862       34.81889
C         71.84282       50.78113       34.57315
H         72.85016       50.80749       34.10634
H         71.10231       51.30246       33.93195
H         71.89787       51.31574       35.54474
H         71.86647       48.94312       35.63092
Ca        65.40994       44.53139       37.70041
O         67.29077       41.85980       39.27601
H         66.69005       41.29597       38.74195
H         67.27867       41.42113       40.16034
O         67.45209       44.76525       40.05299
H         67.81127       44.84377       40.97210
H         68.10049       44.18651       39.58003

Ca 1.70



