%chk=loop3.cluster73.chk
%nprocshared=48
%mem=10GB
%nosave
#b3lyp/svp scf=(tight,noincore) Test 
#IOP(5/87=12) Density=Current Pop=(MK,readradii) iop(6/33=2) iop(6/42=6)

loop3.cluster73 

   0  1 
C         52.63402       55.91273       41.09364
C         53.36104       56.04385       42.39805
O         52.69929       56.05238       43.42126
H         51.83416       56.68162       41.02070
H         53.31647       56.02702       40.22678
H         52.16602       54.90736       41.05784
N         54.73351       56.07130       42.42951
C         55.57821       56.15733       43.63247
C         55.66312       57.57656       44.19078
O         56.74414       58.14644       44.22431
C         55.16517       55.16875       44.75369
C         55.04749       53.72933       44.32918
O         54.61245       52.81577       45.21788
O         55.32356       53.37984       43.19248
H         55.22632       55.94092       41.53273
H         56.61211       55.88299       43.31690
H         54.19176       55.47239       45.18459
H         55.91049       55.22510       45.57713
N         54.54645       58.19409       44.65771
C         54.51562       59.53701       45.22805
C         55.11628       59.62510       46.63868
O         55.16311       60.72159       47.18747
C         53.04699       60.06218       45.20542
C         52.04905       59.49977       46.25351
C         51.81773       57.97751       46.24042
C         50.81394       57.54101       47.31769
N         51.05099       56.15311       47.72466
H         53.66621       57.71330       44.54425
H         55.08604       60.19707       44.53736
H         52.63312       59.90667       44.18352
H         53.08391       61.15968       45.37399
H         51.07548       60.01341       46.10355
H         52.42736       59.77493       47.26197
H         52.78927       57.51377       46.49132
H         51.46371       57.61014       45.25056
H         49.76658       57.67895       46.96351
H         50.95648       58.17839       48.20693
H         50.94105       55.48232       46.93629
H         52.01212       56.05958       48.09194
H         50.43150       55.88907       48.51488
N         55.57562       58.51946       47.29733
C         56.05356       58.52338       48.69197
C         56.72997       57.18047       49.03806
O         56.85376       56.32980       48.15891
C         54.84012       58.81058       49.65094
C         53.78052       57.72988       49.52285
O         52.60929       57.72263       50.20325
O         54.00216       56.79252       48.78333
H         55.53960       57.62067       46.79650
H         56.82959       59.30898       48.81886
H         54.40729       59.79452       49.38548
H         55.17975       58.88485       50.70379
N         57.14093       56.88847       50.30919
C         57.67579       55.57874       50.66978
C         56.59546       54.71413       51.29128
O         56.76818       54.19221       52.38225
H         56.99303       57.57888       51.06058
H         58.57192       55.69117       51.31584
H         58.01473       55.02984       49.76213
N         55.45215       54.50112       50.58520
C         54.36981       53.58765       50.94919
C         54.88605       52.15352       50.94591
O         54.59561       51.41780       51.87957
C         53.22652       53.80482       49.92756
C         52.14670       52.76535       49.93363
N         51.33613       52.59346       50.99581
O         51.98937       52.07425       48.94070
H         55.37091       54.98793       49.68670
H         53.96123       53.82579       51.95828
H         53.65986       53.80452       48.90518
H         52.77247       54.80635       50.10639
H         51.42088       53.18263       51.83608
H         50.60818       51.86915       50.95143
N         55.73431       51.71781       49.96800
C         56.41541       50.43436       50.05053
C         55.50523       49.23827       49.90335
O         54.98520       49.01288       48.81924
H         56.00704       52.36584       49.21343
H         56.95262       50.39148       51.02200
H         57.18627       50.36708       49.25269
N         55.31390       48.39516       50.96664
C         54.59091       47.11827       50.92207
C         53.09377       47.21968       50.61029
O         52.43154       46.19550       50.66345
C         55.30045       46.13980       49.95627
C         56.75635       45.94721       50.32812
C         57.11327       45.23439       51.48759
C         57.76819       46.48742       49.51682
C         58.46189       45.06892       51.82730
C         59.11289       46.33315       49.86656
C         59.46407       45.62328       51.02347
O         60.75900       45.47241       51.37041
H         55.75954       48.64186       51.86324
H         54.65044       46.67882       51.94419
H         55.21990       46.54697       48.92795
H         54.80099       45.14619       49.94797
H         56.34958       44.80072       52.12117
H         57.51434       47.04350       48.62363
H         58.72946       44.51345       52.71812
H         59.88134       46.76753       49.23968
H         61.47506       45.85822       50.84502
N         52.49497       48.40814       50.29301
C         51.06974       48.61041       50.04172
C         50.29380       48.50453       51.34346
O         50.00259       49.53744       51.92693
C         50.48328       47.78837       48.85098
C         51.33837       47.87418       47.55963
C         49.03468       48.23297       48.57022
C         51.45232       49.26559       46.93870
H         53.06606       49.25624       50.24947
H         50.98595       49.67939       49.74513
H         50.46260       46.70931       49.11341
H         50.88760       47.20079       46.79713
H         52.36086       47.49282       47.76830
H         48.38149       47.97427       49.41965
H         48.97592       49.33353       48.42908
H         48.62761       47.73204       47.66749
H         52.06050       49.20236       46.01212
H         50.45358       49.66318       46.66358
H         51.95735       49.96014       47.63282
N         49.96677       47.30121       51.89368
C         49.32517       47.19415       53.20156
C         47.92024       47.78844       53.20593
O         47.52243       48.36455       54.20773
C         49.27223       45.73487       53.66824
O         50.55250       45.16703       53.59145
H         50.20701       46.43714       51.39087
H         49.96423       47.73426       53.93807
H         48.56491       45.16608       53.02461
H         48.92904       45.71252       54.72681
H         50.43760       44.19780       53.76924
N         47.13391       47.71340       52.08633
C         45.78563       48.27808       51.96934
C         45.71380       49.80185       52.12411
O         44.61635       50.34409       52.06944
C         44.80716       47.52055       52.87652
H         47.50315       47.22024       51.26569
H         45.42608       48.08304       50.93582
H         45.05823       47.61249       53.95120
H         43.77077       47.88761       52.71203
H         44.82088       46.44357       52.59469
N         46.83303       50.56623       52.27648
C         46.80152       52.01805       52.36222
C         46.56881       52.66984       51.00311
O         47.32475       52.42419       50.07199
C         48.12657       52.54382       52.91841
H         47.74557       50.11159       52.34059
H         46.03422       52.32755       53.10630
H         48.95771       52.26863       52.25345
H         48.09296       53.65139       53.00733
H         48.32175       52.11218       53.92251
N         45.57178       53.58839       50.87191
C         45.39716       54.53553       49.76844
C         45.25573       54.02097       48.33776
O         45.15198       54.84712       47.43900
C         46.33599       55.74122       49.93519
C         47.79263       55.55824       49.52492
C         48.50836       56.82549       49.86913
O         48.14021       57.88462       49.38582
O         49.53992       56.80139       50.73300
H         44.98750       53.76402       51.70234
H         44.41427       55.01525       49.96260
H         46.29966       56.04855       51.00598
H         45.92671       56.58511       49.33395
H         47.86754       55.37315       48.43025
H         48.27160       54.71993       50.06749
N         45.13641       52.69724       48.04417
C         44.86487       52.25164       46.68982
H         43.94088       52.74290       46.30991
H         45.71033       52.49846       46.01220
H         44.69792       51.15476       46.67788
H         45.17298       51.99396       48.79236
Ca        51.46133       58.64066       51.92799
O         51.47445       58.23799       54.85239
H         52.22367       57.80112       55.32937
H         51.02014       58.78602       55.53972
O         49.90154       60.16220       50.12071
H         50.05131       59.21217       49.90663
H         50.15092       60.63118       49.28835
O         52.62039       61.02402       51.25452
H         52.49808       60.49473       50.42725
H         51.85441       61.64930       51.25366
O         48.87594       57.80126       53.43637
H         48.73802       56.92960       53.88390
H         47.96362       58.13766       53.25162
O         51.79540       55.83207       52.86337
H         50.96420       55.71183       53.38752
H         52.51414       55.49844       53.45636
O         49.61822       60.59667       53.01788
H         50.27146       61.32879       53.14525
H         48.89023       60.79216       53.65835
O         53.84869       58.59267       53.01379
H         54.54118       57.90714       52.84911
H         54.32551       59.38921       53.35250

Ca 1.70



