%chk=loop2.cluster111.chk
%nprocshared=48
%mem=10GB
%nosave
#b3lyp/svp scf=(tight,noincore) Test 
#IOP(5/87=12) Density=Current Pop=(MK,readradii) iop(6/33=2) iop(6/42=6)

loop2.cluster111 

   -2  1 
C         66.88689      111.19673       23.57359
C         66.75418      112.48982       24.32677
O         67.48279      112.70996       25.27887
H         67.90789      111.09316       23.15654
H         66.67419      110.35064       24.25939
H         66.15702      111.14419       22.73581
N         65.83455      113.40443       23.93046
C         65.52736      114.64104       24.64634
C         64.01434      114.74465       24.77141
O         63.50609      114.92327       25.86609
C         66.07058      115.84433       23.85170
C         65.81311      117.18774       24.49663
O         65.22517      117.28325       25.70639
O         66.14955      118.20570       23.91408
H         65.32078      113.20006       23.06440
H         66.00880      114.66207       25.65309
H         65.61524      115.84679       22.84065
H         67.17027      115.73132       23.73827
N         63.24443      114.64080       23.64463
C         61.79668      114.74456       23.58920
C         61.08373      113.67478       24.41196
O         60.06846      113.97594       25.02865
C         61.37847      116.18340       23.91822
H         63.71100      114.49458       22.74099
H         61.51409      114.56234       22.52818
H         61.57796      116.42336       24.98332
H         61.97142      116.88513       23.28939
H         60.30378      116.34504       23.69828
N         61.58116      112.39654       24.49053
C         60.95341      111.32457       25.27596
C         60.74903      111.69535       26.73637
O         59.99503      111.02209       27.42012
C         59.63975      110.84166       24.61393
C         59.90030      110.17456       23.29325
O         58.97234      109.71652       22.64728
O         61.15737      110.03085       22.84044
H         62.46215      112.17848       24.00010
H         61.62189      110.43581       25.29755
H         58.93112      111.68404       24.48055
H         59.15516      110.07147       25.25486
N         61.43769      112.72725       27.29689
C         61.24230      113.14898       28.66800
C         61.55930      112.06503       29.65899
O         62.38234      111.20720       29.37263
H         62.12030      113.24086       26.73776
H         60.19786      113.49697       28.80035
H         61.91918      114.00738       28.87527
N         60.97130      112.08411       30.89309
C         61.29422      111.13466       31.95236
C         62.74964      111.25191       32.41428
O         63.20371      110.38614       33.14634
C         60.87831      109.70502       31.54681
C         59.37670      109.59857       31.44058
N         58.76545      109.57389       30.23598
O         58.70467      109.55294       32.46056
H         60.27331      112.81483       31.09463
H         60.69627      111.37561       32.85674
H         61.18541      108.98946       32.33270
H         61.36554      109.40109       30.59963
H         59.31471      109.64365       29.37069
H         57.73756      109.52061       30.17548
N         63.51629      112.33784       32.08156
C         64.86921      112.53038       32.58875
C         65.92232      112.17307       31.57166
O         67.10039      112.32867       31.87542
H         63.13465      113.07922       31.47994
H         65.05239      111.91422       33.49304
H         64.98352      113.59475       32.88976
N         65.59072      111.64984       30.35763
C         66.57262      111.23127       29.37650
C         66.48161      109.75033       29.10014
O         65.50025      109.10455       29.45899
C         66.39540      112.00060       28.04548
C         64.98665      111.88245       27.43599
O         66.68706      113.36007       28.24340
H         64.60264      111.50827       30.12836
H         67.60298      111.41615       29.75559
H         67.10824      111.54646       27.32027
H         67.48002      113.58027       27.68834
H         64.24451      112.39882       28.07454
H         64.95167      112.37451       26.44549
H         64.68219      110.82403       27.29887
N         67.49749      109.14856       28.42987
C         67.45171      107.76275       27.98893
C         66.37730      107.55890       26.94503
O         65.79713      108.51440       26.45132
C         68.83520      107.27439       27.43757
C         69.40216      108.20234       26.31742
C         69.79352      107.07164       28.62020
C         70.69203      107.68777       25.67988
H         68.33369      109.71640       28.23950
H         67.16900      107.12544       28.85725
H         68.71163      106.26673       26.98470
H         69.62357      109.22291       26.68411
H         68.64389      108.28529       25.50925
H         69.91634      108.00222       29.20955
H         69.37371      106.28373       29.28600
H         70.78352      106.70439       28.28858
H         70.98661      108.37042       24.85386
H         71.52471      107.67671       26.41237
H         70.54247      106.67016       25.26451
N         66.08253      106.28996       26.56772
C         65.08295      105.93414       25.58320
C         64.15600      104.92816       26.22334
O         64.61404      103.86499       26.61515
C         65.82252      105.34333       24.37267
C         64.93316      104.72271       23.33132
O         63.67666      105.16858       23.14462
O         65.39250      103.88104       22.57543
H         66.60562      105.51838       27.00722
H         64.50066      106.81418       25.25380
H         66.52047      104.55831       24.73365
H         66.44666      106.13820       23.90495
N         62.83153      105.20419       26.36986
C         61.90485      104.28790       27.01490
C         61.19121      105.02432       28.14720
O         60.03507      105.39164       27.97954
C         60.93968      103.73428       25.94737
C         60.05512      102.64854       26.51329
C         58.66380      102.82216       26.57473
C         60.62134      101.44588       26.97734
C         57.85256      101.81031       27.09812
C         59.80648      100.43728       27.49594
C         58.42303      100.61914       27.55702
H         62.46124      106.09239       26.00467
H         62.43202      103.41065       27.43175
H         61.52874      103.28387       25.11774
H         60.34294      104.56772       25.51596
H         58.21072      103.74051       26.22343
H         61.69126      101.28772       26.92964
H         56.78084      101.94939       27.14685
H         60.24844       99.51368       27.84792
H         57.79295       99.83620       27.95802
N         61.82964      105.33149       29.32177
C         63.19107      104.94809       29.65405
C         63.34662      103.45964       29.87825
O         62.50705      102.87454       30.55422
C         63.42569      105.61492       31.02121
C         62.43907      106.75502       31.03016
C         61.21946      106.14429       30.34880
H         63.89506      105.38069       28.91439
H         63.09639      104.94929       31.85220
H         64.48414      105.89979       31.20793
H         62.25865      107.14659       32.04993
H         62.84104      107.55384       30.37075
H         60.66932      105.47158       31.04503
H         60.55004      106.94496       29.96532
N         64.48942      102.82043       29.50334
C         64.81427      101.51554       30.06553
C         66.31894      101.34294       30.14080
O         66.97987      101.37175       29.11065
C         64.14096      100.36128       29.28823
C         63.71410       99.21402       30.22466
C         64.82824       98.66263       31.06676
O         65.78859       98.12153       30.54493
O         64.76628       98.76738       32.40940
H         65.22081      103.36468       29.02375
H         64.42460      101.51177       31.10900
H         64.79821      100.01102       28.46042
H         63.19803      100.71888       28.82439
H         63.25453       98.39663       29.63008
H         62.93064       99.61550       30.90636
N         66.93354      101.18835       31.34571
C         68.36847      101.04895       31.45690
H         68.87148      101.93121       31.00668
H         68.65643      100.98623       32.52763
H         68.70370      100.12404       30.94148
H         66.37040      101.17703       32.20910
Ca        63.28438      106.85171       21.68459
O         63.92437      108.63123       23.70440
H         64.63252      108.90346       24.33322
H         63.20325      109.28041       23.87156
O         61.21373      108.61829       20.42716
H         60.26845      108.33157       20.48920
H         61.17825      109.60493       20.49708
O         64.10931      105.22672       19.59282
H         63.85484      104.27229       19.53960
H         65.04232      105.26086       19.26677
O         61.06800      106.90726       23.48254
H         61.56201      107.17440       24.29529
H         60.20962      107.39139       23.55095
O         66.21347      106.85038       21.24411
H         66.39162      105.89686       21.43035
H         66.72581      107.02389       20.41729
O         61.16105      105.04276       20.72647
H         61.04984      104.16668       21.17354
H         61.36150      104.81850       19.78328

Ca 1.70



