%chk=loop3.cluster186.chk
%nprocshared=48
%mem=10GB
%nosave
#b3lyp/svp scf=(tight,noincore) Test 
#IOP(5/87=12) Density=Current Pop=(MK,readradii) iop(6/33=2) iop(6/42=6)

loop3.cluster186 

   0  1 
C         52.65373       54.58562       46.35583
C         52.92354       53.73618       47.56642
O         51.97101       53.31846       48.20962
H         52.09030       55.49468       46.66764
H         53.59748       54.92508       45.88187
H         52.04857       54.02795       45.61388
N         54.21443       53.47219       47.95203
C         54.61963       52.84250       49.21858
C         54.49338       53.79049       50.41177
O         55.39936       53.81051       51.23483
C         53.99175       51.46180       49.49182
C         54.44504       50.44176       48.48752
O         53.65411       49.96791       47.68922
O         55.72005       50.00367       48.50624
H         54.97224       53.77900       47.32469
H         55.71765       52.66136       49.14539
H         52.88791       51.53306       49.52119
H         54.31741       51.08931       50.48796
N         53.45483       54.66897       50.52850
C         53.38288       55.67375       51.57928
C         53.09362       55.07470       52.94887
O         53.26776       55.76996       53.94141
C         52.42420       56.80061       51.14844
C         50.94387       56.39034       51.08602
C         50.13038       57.49754       50.39894
C         48.61865       57.23044       50.40169
N         48.04792       57.35547       51.74432
H         52.74519       54.70410       49.80666
H         54.38868       56.14955       51.62972
H         52.75847       57.12594       50.13514
H         52.52722       57.67214       51.82889
H         50.59932       56.20494       52.12224
H         50.79734       55.45896       50.49806
H         50.47155       57.55874       49.34044
H         50.32240       58.48215       50.87707
H         48.39831       56.22514       49.97762
H         48.13840       57.99040       49.74666
H         48.40598       56.60610       52.37676
H         48.27853       58.29570       52.14221
H         47.00837       57.26861       51.68162
N         52.71334       53.76932       53.08535
C         52.84867       53.03650       54.34028
C         53.71170       51.81061       54.10079
O         53.59822       51.17534       53.05809
C         51.56933       52.89457       55.18004
C         50.29686       52.50071       54.51159
O         50.10733       51.24298       54.11284
O         49.35203       53.27575       54.51096
H         52.49636       53.22019       52.23828
H         53.46900       53.64549       55.03340
H         51.37488       53.89310       55.62757
H         51.76302       52.19694       56.02574
N         54.76673       51.58122       54.93165
C         55.95022       50.85148       54.52964
C         55.79475       49.41434       54.12040
O         56.69420       48.91185       53.46706
H         54.82058       52.10327       55.82112
H         56.68922       50.87287       55.36052
H         56.41310       51.40064       53.68219
N         54.77182       48.64471       54.58281
C         54.82277       47.19618       54.39318
C         54.53943       46.76939       52.95412
O         54.71815       45.59406       52.64867
C         53.91325       46.48589       55.42108
C         52.50040       46.31065       54.95280
N         51.94810       45.07447       54.90911
O         51.85827       47.28015       54.59070
H         54.05945       49.05964       55.19669
H         55.85616       46.89138       54.67457
H         53.92333       47.05365       56.37786
H         54.33075       45.48174       55.64141
H         52.48751       44.24618       55.20255
H         50.98077       44.94401       54.58839
N         54.05134       47.65170       52.02284
C         53.68212       47.25407       50.67235
C         52.27390       46.67937       50.57813
O         51.58364       46.95748       49.60838
H         53.93331       48.64432       52.27179
H         54.43197       46.54872       50.25481
H         53.71645       48.14906       50.01391
N         51.78500       45.86660       51.55743
C         50.50153       45.17438       51.51317
C         49.30648       46.11320       51.35289
O         48.31953       45.73906       50.74315
C         50.58997       44.00278       50.52207
C         51.80321       43.13927       50.84327
C         51.85787       42.36812       52.02254
C         52.90401       43.12768       49.97036
C         52.98897       41.59013       52.30704
C         54.03500       42.35999       50.26371
C         54.07920       41.58442       51.43013
O         55.16454       40.83519       51.71600
H         52.35758       45.68580       52.37976
H         50.35481       44.70738       52.50523
H         50.68430       44.42739       49.50092
H         49.67152       43.37860       50.55380
H         51.02694       42.36424       52.71687
H         52.89246       43.72781       49.07038
H         53.02104       40.99212       53.21042
H         54.87779       42.36957       49.58427
H         55.93671       40.81339       51.13177
N         49.33146       47.32883       51.96967
C         48.25623       48.33136       52.06980
C         47.03418       47.92757       52.96679
O         46.44030       48.94444       53.74037
C         47.77736       48.93066       50.71636
C         47.57217       50.45753       50.90341
C         46.48039       48.25722       50.19780
C         47.18787       51.20040       49.63391
H         50.22321       47.58610       52.42349
H         48.81430       49.13132       52.57735
H         48.59232       48.79838       49.97265
H         48.53670       50.89697       51.24438
H         46.80779       50.65504       51.68471
H         46.55880       47.15815       50.15871
H         45.61940       48.49850       50.86051
H         46.23201       48.60512       49.17821
H         47.93086       50.99717       48.83595
H         46.17244       50.90707       49.30061
H         47.18513       52.28972       49.84778
N         47.15438       46.64275       53.64186
C         46.07315       46.29057       54.58440
C         44.64178       46.40805       54.06233
O         43.79235       46.83147       54.83636
C         46.32032       44.87123       55.11339
O         46.47889       43.97543       54.04420
H         47.12043       45.95041       52.86378
H         46.13553       46.95741       55.47064
H         45.46627       44.56403       55.76107
H         47.24858       44.88038       55.72560
H         46.31390       43.06595       54.39759
N         44.27955       46.03527       52.79366
C         42.88676       46.03835       52.33321
C         42.20845       47.40447       52.42093
O         40.99703       47.46632       52.25721
C         42.08749       44.97260       53.10605
H         45.00064       45.71367       52.13421
H         42.85216       45.72361       51.26756
H         42.59219       43.98837       53.00183
H         41.99589       45.21415       54.18451
H         41.06300       44.87109       52.68546
N         42.92178       48.53950       52.69380
C         42.28731       49.83275       52.89795
C         42.88152       50.88709       51.98271
O         43.92916       50.65523       51.40123
C         42.48549       50.22149       54.36296
H         43.94217       48.49078       52.79772
H         41.19599       49.76711       52.70020
H         42.09741       49.40722       55.01416
H         43.56820       50.34326       54.58047
H         41.94790       51.15881       54.61063
N         42.20800       52.05998       51.77682
C         42.66702       53.19724       50.96690
C         43.03073       52.89413       49.51042
O         43.46505       53.80813       48.82248
C         43.71514       54.03642       51.74245
C         45.17400       53.55559       51.70325
C         45.80959       53.66373       53.05701
O         45.85538       54.84422       53.70176
O         46.25779       52.66643       53.59345
H         41.29615       52.17010       52.24600
H         41.80116       53.89552       50.91969
H         43.33862       54.10313       52.78830
H         43.72239       55.08564       51.36720
H         45.74296       54.15915       50.96204
H         45.24915       52.51466       51.37062
N         42.85398       51.65583       48.95608
C         43.20747       51.36164       47.58171
H         44.24537       50.96900       47.53991
H         42.52850       50.57527       47.18786
H         43.10759       52.25294       46.92741
H         42.43348       50.89410       49.50117
Ca        47.97325       50.56076       54.14647
O         45.55236       51.54646       56.18813
H         44.84124       52.04728       55.71808
H         45.08332       51.12036       56.94760
O         48.61711       51.93363       57.39053
H         49.27707       52.65937       57.52522
H         48.56377       51.48037       58.26918
O         49.51171       48.68969       55.43362
H         49.72950       48.31309       54.54853
H         49.35641       47.89769       56.00180
O         47.05450       49.21727       56.91494
H         46.49167       49.45112       57.69336
H         47.28365       48.26772       57.06402

Ca 1.70



