%chk=loop2.cluster88.chk
%nprocshared=48
%mem=10GB
%nosave
#b3lyp/svp scf=(tight,noincore) Test 
#IOP(5/87=12) Density=Current Pop=(MK,readradii) iop(6/33=2) iop(6/42=6)

loop2.cluster88 

   -2  1 
C         73.59376       39.57795       39.51369
C         72.72981       39.22144       38.33649
O         71.67167       38.64132       38.53069
H         74.51798       40.10572       39.19419
H         73.04161       40.24211       40.21201
H         73.88657       38.64852       40.04291
N         73.13880       39.53534       37.07288
C         72.38399       39.20866       35.86020
C         71.40702       40.32501       35.51235
O         71.44026       40.84816       34.40676
C         73.35027       38.86085       34.68846
C         74.29894       39.96327       34.24401
O         75.21351       40.47869       35.08785
O         74.28276       40.34625       33.08554
H         74.05373       39.98413       36.98156
H         71.78286       38.28963       36.04705
H         72.73547       38.55781       33.81074
H         73.96037       37.98529       34.98860
N         70.48929       40.72936       36.43158
C         69.58494       41.84907       36.23512
C         69.81602       42.83201       37.36621
O         69.98153       42.39001       38.49558
C         68.14578       41.35829       36.23489
H         70.44374       40.24639       37.33618
H         69.76298       42.32100       35.25409
H         67.91943       40.77829       37.15375
H         67.46116       42.22990       36.16147
H         67.98080       40.71460       35.34519
N         69.90651       44.17608       37.17566
C         69.57960       44.88846       35.94747
C         70.80307       45.43956       35.30630
O         71.73216       45.81366       35.99404
C         68.63110       46.03851       36.29149
C         67.32183       45.45941       36.67198
O         66.91257       45.54452       37.95332
O         66.67251       44.86781       35.83152
H         70.16939       44.75046       37.98272
H         69.07385       44.25869       35.19439
H         68.47867       46.72608       35.43206
H         69.04413       46.63067       37.13578
N         70.85491       45.56030       33.95545
C         72.01347       46.10426       33.29239
C         73.17984       45.14773       33.44186
O         73.07686       44.04884       32.91683
H         70.04160       45.28058       33.38714
H         72.16969       47.13109       33.65971
H         71.80265       46.20535       32.20759
N         74.33436       45.44480       34.10964
C         74.60098       46.66783       34.86070
C         74.95990       46.33412       36.30805
O         75.47081       47.19875       37.00736
C         75.70132       47.45888       34.13327
C         75.29248       47.70902       32.69709
N         76.00051       47.16505       31.68036
O         74.29885       48.37879       32.45336
H         75.09063       44.74144       34.08688
H         73.73843       47.34923       34.92659
H         76.64827       46.88215       34.16367
H         75.87128       48.43845       34.63446
H         76.82935       46.58400       31.87141
H         75.70538       47.30777       30.70318
N         74.63135       45.11724       36.85521
C         74.84672       44.79555       38.26070
C         73.96012       45.58858       39.21002
O         74.10037       45.43130       40.41467
H         74.18361       44.39528       36.27366
H         75.91786       44.95505       38.50742
H         74.61026       43.72192       38.42645
N         73.02973       46.46732       38.73842
C         72.21808       47.32026       39.59232
C         71.25908       46.49131       40.42009
O         70.96190       45.36762       40.04563
C         71.46117       48.36162       38.70757
C         70.87083       49.52031       39.50653
O         72.30652       48.90038       37.71801
H         72.93541       46.58533       37.73457
H         72.92358       47.85917       40.25917
H         70.64399       47.83419       38.17261
H         73.17395       49.12727       38.14217
H         70.37246       50.22816       38.81038
H         70.12167       49.17507       40.24335
H         71.69173       50.05929       40.02687
N         70.76756       46.96464       41.59347
C         69.90662       46.15451       42.44533
C         68.86807       46.99998       43.15762
O         68.94887       48.22205       43.16473
C         70.73150       45.25246       43.41750
C         71.37894       44.01636       42.73605
C         71.83104       46.07374       44.10785
C         70.34611       43.00640       42.23265
H         71.07364       47.89242       41.92362
H         69.26220       45.53159       41.79632
H         70.05047       44.85463       44.20173
H         72.00196       43.48048       43.48185
H         72.05694       44.31028       41.91171
H         72.34964       45.45419       44.86875
H         72.58988       46.40779       43.36479
H         71.40169       46.96611       44.60669
H         70.85509       42.10848       41.82487
H         69.68863       42.69673       43.06744
H         69.72289       43.42564       41.42889
N         67.77952       46.37714       43.68580
C         66.57683       47.08833       44.09032
C         65.79024       46.24889       45.06845
O         65.33165       45.17101       44.71675
C         65.68846       47.45341       42.86852
C         65.74902       46.46193       41.73638
O         66.78690       46.37550       41.10313
O         64.67676       45.77312       41.30079
H         67.71636       45.35088       43.58180
H         66.84681       48.03608       44.60809
H         66.07300       48.39427       42.42111
H         64.64553       47.65488       43.19675
N         65.58484       46.71258       46.33232
C         64.78283       46.01014       47.32166
C         65.32153       44.60987       47.59465
O         66.51049       44.48651       47.87734
C         64.78280       46.81249       48.64732
C         64.03235       46.08687       49.73964
C         64.73595       45.30711       50.67548
C         62.63164       46.14495       49.80530
C         64.04514       44.58459       51.65086
C         61.94501       45.42705       50.79002
C         62.65081       44.64394       51.70836
H         66.00046       47.62049       46.59592
H         63.74506       45.97366       46.94247
H         64.34939       47.82606       48.49767
H         65.83813       46.95902       48.96771
H         65.81627       45.23948       50.63097
H         62.07604       46.73831       49.09011
H         64.59110       43.97215       52.35697
H         60.86502       45.47018       50.83547
H         62.11733       44.07982       52.46203
N         64.49895       43.50798       47.64482
C         64.95750       42.20848       48.09607
C         65.95558       41.53798       47.16513
O         66.53305       40.53263       47.54519
C         63.67447       41.35808       48.10826
C         62.56929       42.38354       48.27393
C         63.06408       43.55785       47.44190
H         65.37326       42.34937       49.12062
H         63.51436       40.91860       47.09816
H         63.66938       40.53927       48.86033
H         61.55193       42.03127       47.99487
H         62.56421       42.69935       49.33957
H         62.86426       43.43545       46.35602
H         62.55962       44.45597       47.83590
N         66.09329       41.96894       45.87484
C         66.89352       41.23611       44.89817
C         68.38810       41.33573       45.14895
O         69.13958       40.65243       44.46235
C         66.53626       41.67896       43.45787
C         65.05654       41.36716       43.15474
C         64.75522       41.43945       41.69120
O         64.51454       40.30427       41.00571
O         64.71944       42.51460       41.11774
H         65.53159       42.76293       45.54990
H         66.62285       40.15837       44.97136
H         67.15885       41.07805       42.75795
H         66.76348       42.75565       43.28535
H         64.36160       42.03059       43.71612
H         64.85749       40.32280       43.47119
N         68.90562       42.14443       46.11558
C         70.32718       42.21287       46.36635
H         70.85805       42.56770       45.45933
H         70.52744       42.92127       47.19710
H         70.71094       41.21022       46.65308
H         68.28550       42.72901       46.69238
Ca        65.13477       44.95406       39.23849
O         65.52533       41.97782       38.20966
H         65.82765       41.36859       38.92766
H         65.57757       41.42895       37.38872
O         67.36510       43.31576       40.39879
H         68.05106       43.17617       39.70540
H         67.61850       44.17812       40.80240
O         62.29682       43.64153       39.18541
H         61.95453       44.51445       39.50113
H         61.98294       43.58534       38.24927
O         63.80440       44.08180       36.80684
H         64.62693       44.22715       36.30223
H         63.19697       44.77805       36.45929

Ca 1.70



