%chk=loop3.cluster8.chk
%nprocshared=48
%mem=10GB
%nosave
#b3lyp/svp scf=(tight,noincore) Test 
#IOP(5/87=12) Density=Current Pop=(MK,readradii) iop(6/33=2) iop(6/42=6)

loop3.cluster8 

   0  1 
C         28.75033       35.22812        0.65712
C         28.59458       33.74913        0.59259
O         28.73598       33.18425       -0.48079
H         29.74218       35.51971        0.25483
H         27.94430       35.68067        0.04473
H         28.65976       35.59040        1.70179
N         28.28964       33.04295        1.71273
C         28.05116       31.61833        1.66421
C         26.64991       31.36315        1.14113
O         25.68428       31.89235        1.67438
C         28.25276       30.98955        3.03216
C         28.11251       29.50386        2.96412
O         27.91885       28.91901        1.91366
O         28.21042       28.80566        4.07869
H         28.17483       33.53708        2.61066
H         28.82481       31.14397        1.01406
H         27.52188       31.40222        3.75850
H         29.28252       31.21164        3.39229
N         26.49557       30.56098        0.06269
C         25.25473       30.43464       -0.68116
C         24.35089       29.32320       -0.13760
O         23.14290       29.39244       -0.31731
C         25.66304       30.17309       -2.13660
C         24.55301       30.43077       -3.12861
C         24.99020       30.00289       -4.52977
C         23.84406       30.26749       -5.50361
N         24.16428       29.80886       -6.85212
H         27.34689       30.16568       -0.34438
H         24.72769       31.41402       -0.63287
H         26.03872       29.13052       -2.21207
H         26.49069       30.86703       -2.41216
H         24.31583       31.52006       -3.11529
H         23.65396       29.85398       -2.84001
H         25.23924       28.91840       -4.52105
H         25.89790       30.56859       -4.84564
H         23.64302       31.36103       -5.51612
H         22.92885       29.74092       -5.14998
H         24.13363       28.76374       -6.88619
H         23.44588       30.18976       -7.50891
H         25.10874       30.14754       -7.14596
N         24.88069       28.28173        0.56472
C         24.09325       27.24672        1.23871
C         24.23305       27.38053        2.76210
O         23.60082       26.61442        3.47538
C         24.49359       25.83385        0.73349
C         25.97048       25.68267        0.68166
O         26.68132       25.87129        1.78619
O         26.53376       25.49122       -0.37948
H         25.90040       28.24813        0.68068
H         23.00783       27.36127        1.02953
H         24.11432       25.68515       -0.29802
H         24.05630       25.03973        1.38011
N         24.97540       28.38506        3.33131
C         24.98581       28.64117        4.76589
C         25.71988       27.61452        5.61345
O         25.59440       27.67172        6.82837
H         25.46253       29.06197        2.73540
H         23.92800       28.71848        5.09844
H         25.46527       29.62469        4.95931
N         26.49788       26.64440        5.05475
C         27.09600       25.56068        5.83921
C         28.29524       25.96330        6.70882
O         28.77898       25.12508        7.45671
C         27.47125       24.39424        4.88903
C         28.72479       24.57239        3.99822
N         29.86693       23.80421        4.45985
O         29.10721       25.90126        3.85291
H         26.58397       26.61978        4.03422
H         26.28510       25.16606        6.49133
H         26.60035       24.23096        4.21608
H         27.57858       23.45374        5.46723
H         29.58824       22.80770        4.58790
H         30.56820       23.81875        3.68293
N         28.86015       27.20464        6.61813
C         30.05877       27.61736        7.33208
C         31.25282       27.92739        6.42625
O         32.31264       28.21093        6.96202
H         28.42911       27.89153        6.01799
H         30.38004       26.82896        8.04158
H         29.82108       28.53166        7.91686
N         31.17569       27.87836        5.05990
C         32.33534       28.08750        4.18724
C         31.93533       28.73432        2.87447
O         30.84555       28.49964        2.37635
C         33.03289       26.74759        3.87930
C         33.59172       26.11583        5.12544
C         34.75892       26.62390        5.71651
C         32.94502       25.02018        5.71114
C         35.27377       26.03131        6.87359
C         33.44729       24.44018        6.87527
C         34.61612       24.93721        7.45737
O         35.10092       24.35768        8.57323
H         30.28285       27.66463        4.62315
H         33.05643       28.77487        4.67823
H         33.86913       26.88270        3.15496
H         32.29339       26.07057        3.39881
H         35.27295       27.46782        5.27308
H         32.04473       24.63024        5.27716
H         36.18078       26.42184        7.31595
H         32.92737       23.60261        7.32311
H         35.91787       24.66485        8.99043
N         32.84590       29.49597        2.21252
C         32.58429       30.14664        0.93803
C         33.42702       29.46424       -0.12166
O         34.63207       29.33591        0.05284
C         32.94921       31.65274        1.04186
C         32.08784       32.39266        2.09547
C         32.78962       32.34631       -0.33123
C         32.80700       33.65055        2.59633
H         33.78415       29.60858        2.62512
H         31.51170       30.07892        0.65336
H         34.01382       31.70734        1.36068
H         31.90925       31.76951        2.99696
H         31.09559       32.64036        1.65969
H         31.76308       32.18455       -0.72361
H         32.95913       33.43839       -0.27910
H         33.51718       31.93814       -1.06050
H         33.15220       34.29953        1.76778
H         32.14113       34.24128        3.25723
H         33.69861       33.34188        3.18709
N         32.85276       29.07282       -1.29234
C         33.59516       28.53224       -2.41405
C         33.68109       29.60180       -3.47712
O         33.11461       30.67161       -3.29643
C         32.87720       27.29272       -2.98357
O         32.49875       26.41936       -1.96010
H         31.86608       29.27398       -1.44234
H         34.62091       28.25072       -2.09116
H         33.53087       26.74961       -3.69665
H         31.97603       27.59225       -3.56882
H         31.58657       26.71024       -1.69213
N         34.38066       29.40025       -4.61789
C         34.49030       30.41685       -5.65665
C         33.13850       30.78062       -6.25551
O         32.85287       31.95606       -6.40586
C         35.42370       29.93391       -6.75837
H         34.87385       28.49876       -4.73670
H         34.94789       31.33740       -5.22507
H         36.42450       29.72725       -6.32198
H         35.02985       29.00753       -7.22616
H         35.53178       30.72435       -7.53054
N         32.26198       29.80352       -6.62305
C         30.94356       30.10429       -7.18724
C         30.09452       30.88663       -6.20864
O         29.34598       31.76774       -6.62024
C         30.22276       28.80037       -7.53745
H         32.52754       28.82009       -6.47570
H         31.06886       30.67995       -8.12982
H         30.01162       28.20861       -6.62056
H         29.26474       29.01969       -8.05670
H         30.85936       28.19556       -8.21700
N         30.16030       30.60578       -4.88043
C         29.39993       31.32407       -3.86967
C         29.84441       32.78710       -3.82716
O         29.01251       33.66794       -3.67536
C         29.53180       30.63550       -2.49010
C         29.17685       29.12578       -2.56374
C         29.05732       28.44589       -1.22767
O         27.90627       27.84176       -0.89534
O         29.99717       28.39343       -0.45751
H         30.80712       29.86248       -4.58046
H         28.31905       31.27342       -4.13146
H         28.83571       31.13367       -1.79378
H         30.55336       30.77674       -2.10354
H         29.93243       28.56942       -3.14772
H         28.20757       29.01291       -3.08788
N         31.14651       33.10669       -4.08358
C         31.61976       34.46750       -4.21304
H         32.67981       34.45440       -4.55561
H         31.02614       35.00391       -4.98304
H         31.56696       34.99638       -3.24097
H         31.81838       32.35800       -4.25439
Ca        28.83555       26.30642        1.69027
O         29.29177       25.37188       -1.84222
H         28.67362       24.88973       -1.24404
H         28.71850       25.67718       -2.58779
O         31.45689       25.79763        0.78406
H         31.21835       25.27326       -0.02021
H         32.42400       25.63658        0.90691
O         29.09300       23.64655        1.09858
H         30.05980       23.68322        1.30415
H         29.04365       23.20559        0.21654

Ca 1.70



