%chk=loop3.cluster45.chk
%nprocshared=48
%mem=10GB
%nosave
#b3lyp/svp scf=(tight,noincore) Test 
#IOP(5/87=12) Density=Current Pop=(MK,readradii) iop(6/33=2) iop(6/42=6)

loop3.cluster45 

   0  1 
C         59.08946       47.31312       40.00667
C         58.44877       47.58571       41.33138
O         58.98310       47.17951       42.34862
H         60.06480       46.80058       40.14709
H         58.42873       46.65576       39.40055
H         59.25334       48.26854       39.46875
N         57.26287       48.24461       41.39149
C         56.54658       48.45579       42.63801
C         55.39126       47.47704       42.63167
O         54.28097       47.81270       42.24378
C         56.13965       49.93053       42.76186
C         55.38320       50.23011       44.01496
O         54.80227       51.29345       44.11334
O         55.32093       49.33976       45.01948
H         56.81452       48.54511       40.51128
H         57.17931       48.21737       43.52402
H         55.49580       50.19677       41.90017
H         57.04139       50.58334       42.75047
N         55.65337       46.18780       42.96908
C         54.69543       45.09296       42.87519
C         53.47947       45.26163       43.76952
O         52.40767       44.79918       43.40534
C         55.37767       43.76461       43.27054
C         56.61142       43.37827       42.43388
C         56.29149       43.25517       40.94344
C         57.44231       42.57000       40.20179
N         57.15538       42.47427       38.77253
H         56.61264       45.97284       43.26971
H         54.34600       45.01572       41.82423
H         54.63590       42.94292       43.17389
H         55.68851       43.81488       44.33767
H         56.96488       42.40062       42.82437
H         57.44653       44.09522       42.55578
H         56.11707       44.27021       40.52051
H         55.37470       42.64345       40.80925
H         57.57464       41.54468       40.61656
H         58.38712       43.13688       40.35429
H         57.96267       42.01360       38.29457
H         56.29483       41.90022       38.61609
H         57.02116       43.43019       38.37007
N         53.58414       45.89113       44.96888
C         52.47645       46.04307       45.90618
C         51.87534       47.44401       45.83187
O         50.86516       47.68533       46.47901
C         52.95182       45.67361       47.33624
C         54.26639       46.34392       47.70411
O         55.22326       45.64938       47.99402
O         54.43346       47.67876       47.57549
H         54.47482       46.33626       45.20228
H         51.64162       45.35743       45.63361
H         53.13104       44.57410       47.36703
H         52.14821       45.88979       48.07407
N         52.39993       48.39674       45.00427
C         51.78987       49.69906       44.79073
C         51.89967       50.66484       45.95482
O         51.38086       51.76636       45.83947
H         53.22343       48.17335       44.44043
H         50.72513       49.55319       44.50641
H         52.29913       50.18487       43.93170
N         52.55675       50.33941       47.10602
C         52.59754       51.22918       48.26381
C         53.46840       52.48058       48.08008
O         53.55399       53.27625       49.00436
C         52.94300       50.44193       49.54807
C         54.37822       50.08224       49.76883
N         54.74137       49.51105       50.93620
O         55.21979       50.32863       48.92596
H         52.95726       49.40583       47.19655
H         51.55636       51.56852       48.44082
H         52.34091       49.50368       49.57347
H         52.64517       51.06267       50.41427
H         54.04946       49.36501       51.68495
H         55.71352       49.23640       51.09824
N         54.13216       52.72176       46.91390
C         54.85790       53.95188       46.63731
C         56.33366       53.73123       46.44306
O         57.00981       54.66961       46.04104
H         54.09202       52.02857       46.16656
H         54.73592       54.70997       47.43787
H         54.43917       54.37969       45.69920
N         56.92372       52.53912       46.75512
C         58.34641       52.32540       46.59844
C         58.63422       50.92337       46.00028
O         58.50858       49.89561       46.96290
C         59.12279       52.64088       47.90129
C         58.66961       51.88496       49.12250
C         57.60086       52.36283       49.90185
C         59.34570       50.72169       49.51764
C         57.22312       51.68287       51.06415
C         58.95243       50.03304       50.66250
C         57.89773       50.51554       51.44588
O         57.51801       49.85460       52.55841
H         56.36499       51.77906       47.16040
H         58.73290       53.06078       45.85404
H         59.05052       53.72616       48.13377
H         60.20650       52.45849       47.73546
H         57.07349       53.26662       49.61789
H         60.17142       50.34380       48.92935
H         56.40221       52.05787       51.66409
H         59.47273       49.12789       50.94466
H         57.91245       49.00399       52.79966
N         60.00097       50.94951       45.45456
C         60.65587       49.70021       45.07587
C         61.45593       49.18976       46.25656
O         62.19656       49.95697       46.85693
C         61.61073       49.93010       43.86627
C         60.94507       50.82307       42.78610
C         62.06325       48.57049       43.29192
C         61.85203       51.10736       41.59313
H         60.57409       51.82765       45.46536
H         59.87728       48.97238       44.75442
H         62.51282       50.48002       44.21891
H         60.73266       51.81541       43.23566
H         59.98344       50.39081       42.43530
H         62.56747       47.95804       44.06397
H         61.19613       47.99976       42.91086
H         62.78680       48.69908       42.46371
H         61.96813       50.20080       40.96626
H         61.39610       51.90512       40.97047
H         62.84805       51.45718       41.94121
N         61.39894       47.87998       46.60170
C         62.22170       47.29414       47.64639
C         63.15234       46.28666       47.01417
O         63.11664       46.11296       45.81163
C         61.33864       46.68145       48.74202
O         60.61006       45.58796       48.26209
H         60.81837       47.25442       46.04207
H         62.85242       48.06581       48.13201
H         60.66303       47.46738       49.15727
H         61.96081       46.32964       49.58888
H         59.72330       45.93919       48.00735
N         64.06234       45.62102       47.75852
C         65.01778       44.69548       47.16202
C         64.32371       43.47459       46.58259
O         64.57831       43.12485       45.43812
C         66.04715       44.30606       48.21458
H         64.10164       45.80829       48.77153
H         65.58138       45.20938       46.35016
H         66.80397       43.62100       47.78157
H         66.56289       45.23457       48.54735
H         65.55916       43.83333       49.09169
N         63.40191       42.79779       47.32006
C         62.67420       41.63409       46.82011
C         61.91389       41.95692       45.54097
O         61.97789       41.18510       44.59419
C         61.70600       41.13958       47.90147
H         63.18828       43.14483       48.26828
H         63.38966       40.80506       46.62103
H         61.19475       40.21023       47.57241
H         62.27438       40.91034       48.82956
H         60.94379       41.91320       48.13651
N         61.19689       43.11126       45.44151
C         60.45782       43.49703       44.23784
C         61.40725       43.61654       43.04800
O         61.20179       42.94455       42.04742
C         59.70287       44.81993       44.48387
C         58.64580       44.68782       45.59817
C         57.91609       45.97939       45.84449
O         56.71274       46.02361       45.71572
O         58.56479       47.08279       46.23913
H         61.20415       43.75164       46.24870
H         59.69287       42.72301       44.00637
H         59.18217       45.10971       43.55669
H         60.43380       45.60962       44.73001
H         59.10186       44.35549       46.54823
H         57.91153       43.90850       45.30618
N         62.50288       44.42056       43.12406
C         63.53438       44.49239       42.11004
H         64.49444       44.16471       42.56664
H         63.32573       43.84136       41.23781
H         63.65652       45.54183       41.76816
H         62.64294       44.97016       43.96628
Ca        56.49220       48.74108       47.32264
O         57.21225       47.08050       49.76727
H         56.78805       46.18789       49.77390
H         57.86120       47.03759       50.51176

Ca 1.70



