%chk=loop3.cluster101.chk
%nprocshared=48
%mem=10GB
%nosave
#b3lyp/svp scf=(tight,noincore) Test 
#IOP(5/87=12) Density=Current Pop=(MK,readradii) iop(6/33=2) iop(6/42=6)

loop3.cluster101 

   0  1 
C         60.05199       61.23533       38.60774
C         59.93365       62.73073       38.57330
O         60.46600       63.35716       37.66764
H         60.89487       60.96992       39.28126
H         59.12653       60.77666       39.01593
H         60.25426       60.82131       37.59832
N         59.24788       63.37344       39.55907
C         59.19058       64.82849       39.68499
C         58.68802       65.47730       38.40630
O         59.40571       66.27302       37.81730
C         58.29162       65.27445       40.87012
C         58.69984       64.71467       42.21170
O         59.15663       65.53915       43.17173
O         58.56063       63.52749       42.46010
H         58.77272       62.78995       40.25866
H         60.22245       65.19895       39.88311
H         57.22863       65.00176       40.69183
H         58.34821       66.38340       40.92854
N         57.45195       65.17202       37.92187
C         56.92410       65.74399       36.68156
C         56.81381       67.26164       36.72536
O         56.77142       67.89337       35.67719
C         55.53898       65.13090       36.39057
C         54.44311       65.64181       37.35670
C         53.14573       64.84528       37.19502
C         51.88348       65.63225       37.57544
N         51.86512       66.06937       38.96808
H         56.88472       64.48181       38.43509
H         57.62704       65.45786       35.86720
H         55.63271       64.02470       36.44159
H         55.22261       65.39861       35.35765
H         54.26416       66.70284       37.08994
H         54.75408       65.59560       38.42534
H         53.22194       63.90654       37.78956
H         53.01095       64.56998       36.12961
H         51.01081       64.97077       37.39312
H         51.78377       66.51638       36.90462
H         50.88740       66.32342       39.21801
H         52.19348       65.32379       39.61763
H         52.45549       66.91143       39.08460
N         56.70724       67.90410       37.91796
C         56.53274       69.34787       38.04558
C         57.04287       69.80971       39.40354
O         57.06029       69.01999       40.33650
C         55.06225       69.77097       37.74894
C         54.04016       69.01747       38.56298
O         54.40748       68.23420       39.42314
O         52.71103       69.16527       38.35686
H         56.71188       67.33049       38.77473
H         57.19455       69.84450       37.30445
H         54.84993       69.55881       36.68132
H         54.93612       70.86222       37.92119
N         57.64513       71.02871       39.52438
C         58.31188       71.49426       40.73568
C         57.34620       71.99103       41.78957
O         57.36219       73.17444       42.09917
H         57.72290       71.61777       38.68143
H         58.94658       72.36209       40.45044
H         58.99324       70.71278       41.13685
N         56.47675       71.13992       42.39495
C         55.47206       71.57755       43.35012
C         56.06072       71.71403       44.75368
O         55.34229       72.12336       45.65413
C         54.27897       70.59252       43.28146
C         53.73301       70.44987       41.87260
N         52.72864       69.58091       41.62155
O         54.20620       71.10678       40.95534
H         56.48538       70.15076       42.14718
H         55.07256       72.56878       43.03369
H         53.45303       70.93541       43.93977
H         54.61400       69.58825       43.61409
H         52.33332       69.00315       42.37333
H         52.34948       69.47814       40.67368
N         57.38174       71.43852       44.99699
C         58.04179       71.64865       46.27658
C         57.57289       70.69897       47.34885
O         57.59724       69.49479       47.13501
H         57.98222       71.11678       44.22679
H         57.91935       72.70881       46.58656
H         59.12704       71.46152       46.13771
N         57.13229       71.18934       48.54849
C         56.61574       70.37278       49.65103
C         55.27074       69.70310       49.29851
O         54.71470       69.02254       50.14657
C         57.69284       69.35709       50.12418
C         57.55478       68.89175       51.56205
C         57.88197       69.76647       52.61725
C         57.17911       67.57170       51.86194
C         57.85138       69.32089       53.94420
C         57.13532       67.13339       53.19237
C         57.48405       68.00415       54.23601
O         57.48249       67.58115       55.51770
H         57.17171       72.20855       48.69979
H         56.42793       71.07603       50.49262
H         58.70002       69.82857       50.07111
H         57.71511       68.49385       49.42622
H         58.19618       70.78190       52.40945
H         56.92642       66.88229       51.06748
H         58.13094       69.99410       54.74640
H         56.84575       66.11337       53.41147
H         57.27279       66.66590       55.75370
N         54.70742       69.85995       48.05331
C         53.45888       69.28309       47.56538
C         52.23725       70.08034       47.97916
O         51.50352       70.50475       47.09208
C         53.33733       67.74228       47.72583
C         54.57812       66.98698       47.17691
C         52.06425       67.23604       47.00918
C         54.93635       67.29850       45.71747
H         55.19896       70.41672       47.35895
H         53.47884       69.43183       46.46024
H         53.23653       67.47063       48.79818
H         54.38005       65.89683       47.26903
H         55.46848       67.21093       47.80236
H         51.15931       67.61552       47.51512
H         52.02624       67.57440       45.95144
H         52.00833       66.12785       47.02760
H         55.73821       66.61059       45.37915
H         54.06690       67.16863       45.04230
H         55.32002       68.33586       45.62475
N         51.94387       70.36280       49.27900
C         50.73628       71.10074       49.62726
C         49.49514       70.22056       49.46473
O         48.40795       70.75138       49.30817
C         50.81708       71.66213       51.04780
O         51.99208       72.41665       51.18025
H         52.59455       70.08174       50.02301
H         50.67009       71.98214       48.94501
H         50.82312       70.81785       51.77225
H         49.93790       72.31950       51.22929
H         52.07208       72.64230       52.14261
N         49.61316       68.85157       49.46918
C         48.50421       67.92234       49.23399
C         47.85783       68.12961       47.87161
O         46.70846       67.73777       47.68778
C         47.48325       67.95730       50.38152
H         50.53620       68.43221       49.63093
H         48.91801       66.89047       49.24237
H         46.94619       68.92553       50.43750
H         46.73411       67.14638       50.23736
H         47.99461       67.76567       51.34886
N         48.51593       68.78147       46.87230
C         47.86692       69.15081       45.62903
C         47.73865       67.98451       44.67437
O         48.58394       67.09870       44.68834
C         48.60775       70.32056       44.97404
H         49.47425       69.11599       47.03881
H         46.85422       69.53901       45.87001
H         49.64377       70.03981       44.68652
H         48.05792       70.67430       44.07748
H         48.65935       71.16235       45.70031
N         46.73232       67.99207       43.74641
C         46.52524       66.99531       42.69477
C         47.08994       65.61610       43.00983
O         47.85060       65.06528       42.22485
C         46.97442       67.59430       41.34102
C         48.40504       68.15905       41.39416
C         48.77689       68.79656       40.09539
O         48.21374       69.96321       39.73207
O         49.62137       68.28768       39.38428
H         46.11002       68.81384       43.72649
H         45.43153       66.80407       42.62405
H         46.28499       68.42480       41.07693
H         46.89152       66.82253       40.54129
H         49.11514       67.34461       41.64652
H         48.49474       68.95143       42.16779
N         46.69970       64.98016       44.15096
C         47.17896       63.66264       44.51025
H         48.13623       63.75424       45.06368
H         46.43500       63.16725       45.17060
H         47.31278       63.02126       43.61319
H         46.05409       65.45799       44.79856
Ca        50.78984       69.97324       37.45256
O         50.32984       68.14608       35.33859
H         49.73914       68.60427       34.69098
H         51.13454       67.90369       34.81632
O         51.83011       72.05947       39.12456
H         52.26722       72.73791       38.55500
H         52.55072       71.41090       39.29595
O         47.82631       69.35531       36.84360
H         47.12770       69.44265       37.53824
H         47.35571       68.94671       36.07568
O         52.58835       71.17935       35.94376
H         52.60162       70.81611       35.02397
H         53.37636       71.77066       36.01135
O         48.90649       72.36533       37.82180
H         48.86000       73.12070       38.45928
H         48.11487       72.48173       37.23873
O         49.35211       71.30519       35.04297
H         49.31092       72.28952       34.94919
H         49.37931       70.96726       34.11348

Ca 1.70



