%chk=loop1.cluster144.chk
%nprocshared=48
%mem=10GB
%nosave
#b3lyp/svp scf=(tight,noincore) Test 
#IOP(5/87=12) Density=Current Pop=(MK,readradii) iop(6/33=2) iop(6/42=6)

loop1.cluster144 

   0  1 
C         34.13403       45.31751       15.13956
C         35.21064       46.22569       14.61597
O         35.82419       45.90877       13.60708
H         33.30006       45.29404       14.40534
H         34.52019       44.28965       15.29168
H         33.72596       45.69062       16.10362
N         35.42905       47.43018       15.21766
C         36.33286       48.46103       14.71061
C         36.04496       48.74869       13.23093
O         36.96317       48.91291       12.44103
C         37.80459       48.08211       14.98926
C         38.75135       49.25527       14.92352
O         38.29245       50.50830       14.72893
O         39.94441       49.07614       15.10633
H         34.84759       47.67729       16.03377
H         36.09597       49.36962       15.30699
H         38.12214       47.28590       14.28063
H         37.88633       47.67649       16.02063
N         34.75718       48.71613       12.79233
C         34.35696       48.75621       11.38515
C         33.54943       50.01488       11.13137
O         33.74734       50.66321       10.11134
C         33.58974       47.45024       11.12363
C         33.24213       47.15190        9.65920
C         32.76218       45.69228        9.49692
C         31.49920       45.37860       10.31894
N         31.04040       44.00945       10.09290
H         34.02038       48.54759       13.49193
H         35.24515       48.77185       10.71440
H         32.66959       47.44481       11.74494
H         34.25437       46.62657       11.46443
H         34.15659       47.26643        9.03667
H         32.47360       47.86353        9.28695
H         33.57897       45.00440        9.81652
H         32.56337       45.50142        8.42090
H         30.69058       46.08782       10.03896
H         31.71568       45.49411       11.40229
H         30.23518       43.81540       10.73179
H         30.72239       43.89806        9.10341
H         31.80602       43.32781       10.30154
N         32.69056       50.47233       12.08554
C         32.11767       51.81107       12.07390
C         32.08009       52.45978       13.47908
O         31.78764       53.64511       13.54754
C         30.71477       51.74080       11.45131
C         30.07490       53.08959       11.29712
O         30.52213       53.89425       10.49594
O         29.00547       53.41536       12.04758
H         32.50504       49.86710       12.88272
H         32.76476       52.46855       11.44587
H         30.08697       51.10260       12.10605
H         30.76390       51.26581       10.44556
N         32.34983       51.77075       14.64193
C         32.34007       52.41672       15.93994
C         33.43772       53.43516       15.98990
O         34.59674       53.07228       15.85838
H         32.56182       50.77160       14.64920
H         32.52291       51.66669       16.74201
H         31.34128       52.86944       16.12239
N         33.13875       54.75278       16.10646
C         34.17724       55.77460       16.05764
C         34.81621       55.84473       17.43559
O         34.09670       56.05913       18.40462
C         33.61413       57.15708       15.62608
C         32.50336       57.05039       14.61395
O         32.74609       56.81092       13.31923
O         31.34752       57.01454       15.00686
H         32.14690       55.02351       16.15198
H         34.90286       55.49442       15.26113
H         34.43820       57.79633       15.23594
H         33.17816       57.68477       16.49715
N         36.15562       55.65838       17.61141
C         36.76680       55.66278       18.93527
C         36.58878       54.35351       19.68502
O         36.95052       54.29560       20.85099
H         36.76034       55.53986       16.78672
H         36.35955       56.51373       19.52818
H         37.86060       55.81708       18.84187
N         36.05234       53.25473       19.07565
C         35.79046       52.01088       19.78656
C         34.37551       52.07378       20.30053
O         33.49322       52.54159       19.59696
C         36.06478       50.77096       18.90111
C         35.89745       49.46277       19.68260
O         35.20338       50.74047       17.79468
H         35.72675       53.32805       18.10677
H         36.48255       51.91684       20.65429
H         37.13012       50.80067       18.56870
H         35.65473       51.24261       17.07141
H         36.53819       49.46038       20.59002
H         34.84498       49.32501       19.99335
H         36.18376       48.59962       19.04509
N         34.10860       51.64534       21.55830
C         32.81459       51.83007       22.20107
C         32.99680       52.53831       23.53817
O         32.04511       52.59702       24.31140
C         32.08600       50.46548       22.34128
C         32.87335       49.45161       23.21057
C         31.77365       49.89639       20.94218
C         32.15236       48.12295       23.40446
H         34.85816       51.18290       22.09408
H         32.14282       52.47443       21.59321
H         31.10828       50.68506       22.82510
H         33.05283       49.89056       24.21544
H         33.85916       49.22909       22.74878
H         31.41804       50.69536       20.25653
H         32.66838       49.42812       20.48979
H         30.96740       49.13752       21.00363
H         31.16472       48.27717       23.88842
H         32.01811       47.58985       22.44079
H         32.78830       47.48539       24.04625
N         34.18630       53.11807       23.87755
C         34.47659       53.63946       25.20079
C         35.75345       52.99887       25.68360
O         36.73470       52.96735       24.94466
C         34.63107       55.17246       25.24031
C         33.34593       55.85488       24.73338
O         34.91890       55.53159       26.57859
H         34.94642       53.16729       23.18039
H         33.64911       53.40514       25.91134
H         35.47945       55.50187       24.60174
H         34.41945       56.34714       26.84010
H         33.41774       56.95527       24.86708
H         33.20397       55.64928       23.65252
H         32.46008       55.48749       25.29554
N         35.83807       52.53379       26.94985
C         37.04348       51.94507       27.50402
C         36.69616       50.60425       28.12577
O         37.31214       49.60629       27.78925
C         37.67878       52.94259       28.50086
C         39.01878       52.43268       29.04106
O         36.79939       53.21692       29.56042
H         35.02217       52.67218       27.56736
H         37.80986       51.78043       26.70952
H         37.87290       53.88256       27.93031
H         37.15901       54.00961       30.03708
H         39.48016       53.20892       29.68725
H         38.87896       51.50988       29.63657
H         39.71581       52.21654       28.20358
N         35.68752       50.52646       29.04309
C         35.30160       49.30234       29.72652
C         33.84313       48.96446       29.43842
O         33.01142       49.85879       29.39471
C         35.47667       49.51809       31.23450
C         36.95586       49.66508       31.63703
C         37.11071       49.76575       33.16043
C         36.70659       51.14471       33.70965
N         36.75802       51.17596       35.17826
H         35.17167       51.37956       29.29304
H         35.93340       48.43766       29.42749
H         35.07439       48.62362       31.75681
H         34.88804       50.40613       31.54854
H         37.43782       50.53845       31.14905
H         37.48667       48.74817       31.30009
H         38.17972       49.60811       33.42364
H         36.51792       48.95491       33.63715
H         35.68781       51.43671       33.37766
H         37.41612       51.89398       33.28956
H         35.78459       51.18233       35.56187
H         37.26254       50.35078       35.57686
H         37.24227       52.04543       35.49806
N         33.46586       47.65910       29.28144
C         32.08001       47.24958       29.05138
C         31.74593       47.15352       27.56701
O         30.79939       47.81483       27.16196
C         31.72681       45.92819       29.77925
C         31.55676       46.10327       31.29340
C         31.15770       44.80452       31.94244
O         31.87384       43.82082       31.84236
O         30.01015       44.72410       32.64419
H         34.18290       46.92678       29.37916
H         31.38354       48.01403       29.46675
H         32.49327       45.15450       29.58803
H         30.75314       45.55688       29.38763
H         30.75703       46.85326       31.48679
H         32.50347       46.46392       31.74310
N         32.40471       46.35788       26.67321
C         33.59448       45.58579       26.95604
H         34.42264       46.25483       27.26187
H         33.40547       44.80306       27.70833
H         33.92246       45.07009       26.02856
H         32.04316       46.32111       25.71126
Ca        30.89229       56.15468       12.22602
O         33.09177       55.33887       10.73865
H         33.84509       55.05245       11.31183
H         33.38262       55.15539        9.81160
O         31.08933       57.49500        9.89294
H         30.88983       58.44582        9.71177
H         31.93543       57.31160        9.41530
O         28.18767       56.60526       11.41019
H         28.47918       56.99519       10.54837
H         27.27608       56.26315       11.23732
O         28.51998       55.78220       14.34577
H         28.60317       56.19429       15.24205
H         27.55720       55.56846       14.25840
O         29.83730       58.88842       12.61150
H         29.10438       58.94244       13.27486
H         29.85670       59.78035       12.18310

Ca 1.70



