%chk=loop2.cluster13.chk
%nprocshared=48
%mem=10GB
%nosave
#b3lyp/svp scf=(tight,noincore) Test 
#IOP(5/87=12) Density=Current Pop=(MK,readradii) iop(6/33=2) iop(6/42=6)

loop2.cluster13 

   -2  1 
C         59.03632       28.79559        9.75884
C         59.23719       29.23643        8.34162
O         58.54290       28.74347        7.47745
H         57.96313       28.54920        9.91377
H         59.63520       27.88280        9.96266
H         59.30898       29.60447       10.46574
N         60.12539       30.21952        8.03011
C         60.31345       30.70417        6.66086
C         60.98032       29.65299        5.76729
O         60.59237       29.52891        4.61454
C         61.08972       32.02693        6.68606
C         61.03220       32.75148        5.37131
O         62.16709       33.09630        4.73797
O         59.95433       33.07376        4.89736
H         60.64767       30.66832        8.79720
H         59.30457       30.94670        6.25628
H         62.13901       31.84563        7.00106
H         60.60565       32.69245        7.43436
N         61.88449       28.76154        6.29627
C         62.41371       27.56538        5.61372
C         61.32459       26.53989        5.22195
O         61.64291       25.52168        4.62577
C         63.27722       27.94464        4.40140
H         62.18341       28.90536        7.27126
H         63.10021       27.06069        6.32837
H         64.01946       28.72091        4.68343
H         63.84287       27.05107        4.05243
H         62.66631       28.32042        3.55946
N         60.01188       26.78921        5.50202
C         58.85024       26.03567        5.04742
C         58.69494       26.07261        3.52779
O         57.84337       25.37437        2.98900
C         58.77103       24.63441        5.68757
C         57.35129       24.10689        5.76346
O         57.11644       22.90374        6.31732
O         56.40722       24.78322        5.38441
H         59.79274       27.60888        6.03961
H         57.98022       26.59166        5.44569
H         59.11425       24.69953        6.74319
H         59.42665       23.92627        5.14159
N         59.44289       26.93046        2.77716
C         59.34411       27.03070        1.33397
C         60.30705       28.07765        0.80666
O         61.39796       28.20723        1.35113
H         60.10415       27.55324        3.25214
H         58.30178       27.28544        1.04241
H         59.61816       26.04952        0.89076
N         59.99446       28.83980       -0.28151
C         60.92824       29.81990       -0.84394
C         60.41305       31.25393       -0.81319
O         61.20626       32.15392       -1.04406
C         61.31841       29.40105       -2.26979
C         60.12321       29.38719       -3.19412
N         59.64444       28.21888       -3.67846
O         59.57328       30.43710       -3.49282
H         59.08775       28.68104       -0.74986
H         61.86306       29.83133       -0.23946
H         61.76391       28.38449       -2.20658
H         62.09625       30.07978       -2.68329
H         60.07904       27.32305       -3.41410
H         58.81985       28.21195       -4.29633
N         59.11140       31.54743       -0.51750
C         58.63285       32.91584       -0.34681
C         58.24174       33.01156        1.09315
O         58.96295       33.61929        1.87287
H         58.44628       30.78257       -0.34093
H         57.77882       33.12550       -1.02579
H         59.43403       33.65445       -0.56310
N         57.20002       32.26031        1.54136
C         57.16343       31.74675        2.90119
C         56.05614       32.29825        3.75858
O         54.89433       32.27757        3.37486
C         57.07841       30.20907        2.83411
C         57.16811       29.55315        4.22600
O         55.89048       29.82710        2.18433
H         56.58026       31.81822        0.84382
H         58.13246       31.96288        3.40055
H         57.95478       29.88275        2.22817
H         55.90498       28.83956        2.10234
H         57.36661       30.27688        5.04077
H         56.22816       29.01915        4.45983
H         57.99007       28.81573        4.23797
N         56.37317       32.72321        5.01261
C         55.38943       33.13470        6.00257
C         54.59232       31.93249        6.50287
O         54.90513       30.82616        6.09223
C         56.11454       34.02352        7.04374
C         55.11911       34.85844        7.86594
C         57.12320       33.26883        7.94595
C         55.72813       36.17758        8.31731
H         57.36754       32.72606        5.27738
H         54.67907       33.80384        5.47019
H         56.68538       34.73126        6.39681
H         54.74318       34.26480        8.72606
H         54.25168       35.14621        7.23308
H         57.82034       33.98811        8.42498
H         56.59793       32.69665        8.73842
H         57.75045       32.54523        7.38815
H         54.97565       36.73603        8.90963
H         56.64302       36.01957        8.91996
H         55.98005       36.78443        7.41744
N         53.46593       32.06939        7.26398
C         52.49092       30.97816        7.36956
C         51.10332       31.55600        7.59475
O         50.70277       32.40001        6.80071
C         52.93880       29.83752        8.32532
C         52.15365       28.55558        8.08547
O         52.69529       27.52087        7.42116
O         50.98948       28.46297        8.42587
H         53.18503       33.01531        7.56237
H         52.42203       30.52253        6.35700
H         52.90747       30.15440        9.38780
H         53.99074       29.60363        8.11377
N         50.31048       31.17600        8.63757
C         48.96086       31.66640        8.82173
C         48.01552       30.45284        8.94516
O         47.50514       30.07480        7.89832
C         49.04427       32.81461        9.84128
C         47.74792       33.43106       10.27408
C         46.73942       33.75498        9.35343
C         47.54782       33.68840       11.64123
C         45.53237       34.29280        9.80712
C         46.34747       34.23012       12.08701
C         45.33568       34.52627       11.17256
H         50.67251       30.54234        9.35412
H         48.62796       32.16964        7.88259
H         49.64900       33.61367        9.35303
H         49.62855       32.48315       10.72595
H         46.87413       33.57342        8.29533
H         48.32559       33.45566       12.36087
H         44.74716       34.52280        9.10061
H         46.20316       34.41250       13.14331
H         44.40044       34.93783       11.52288
N         47.76408       29.72397       10.09688
C         47.95883       30.20053       11.45617
C         49.29602       29.93141       12.08547
O         49.49898       30.35091       13.21587
C         46.92835       29.37968       12.26668
C         45.94430       28.89296       11.21192
C         46.89329       28.57070       10.07774
H         47.64330       31.23828       11.50114
H         47.41112       28.44969       12.65376
H         46.48833       29.91433       13.13578
H         45.32182       28.03500       11.54350
H         45.29551       29.73597       10.89130
H         47.50630       27.68036       10.35711
H         46.39503       28.34998        9.11232
N         50.18727       29.09797       11.48636
C         51.32328       28.53895       12.20305
C         52.55913       29.39381       11.99844
O         53.58097       28.89683       11.54289
C         51.50208       27.06125       11.78425
C         50.28915       26.17565       12.14662
C         50.07426       26.07602       13.63353
O         51.12705       25.95094       14.46527
O         48.94199       26.07027       14.08930
H         49.92551       28.67439       10.58744
H         51.12947       28.54044       13.29669
H         52.40473       26.62705       12.26588
H         51.65788       27.01904       10.68798
H         50.48597       25.15240       11.76468
H         49.35605       26.52992       11.65384
N         52.53504       30.70576       12.37265
C         53.67490       31.58925       12.28807
H         54.56499       31.10289       11.84128
H         53.40243       32.47870       11.68195
H         53.92786       31.92784       13.31537
H         51.67487       31.10344       12.76338
Ca        54.01554       26.10790        6.27565
O         51.43591       25.23559        5.58171
H         50.56223       25.63810        5.35545
H         51.39242       24.30978        5.23430
O         55.73257       27.97057        6.73526
H         55.78519       28.87608        7.11023
H         56.63309       27.59844        6.85561
O         55.40467       25.59472        8.72048
H         55.01743       25.72539        9.62185
H         55.59191       24.62425        8.66285
O         53.45673       28.26362        4.45965
H         52.94323       28.77255        3.78655
H         53.91579       28.95647        4.98990
O         53.88617       23.40612        5.92192
H         53.41727       22.70864        6.44174
H         54.44900       22.91618        5.27294
O         52.42805       24.89069        8.50684
H         51.72043       24.44264        7.98227
H         51.95939       25.64309        8.94231
O         53.71303       25.47632        3.47863
H         53.98482       24.64816        3.01112
H         52.74517       25.56556        3.29084

Ca 1.70



