%chk=loop3.cluster38.chk
%nprocshared=48
%mem=10GB
%nosave
#b3lyp/svp scf=(tight,noincore) Test 
#IOP(5/87=12) Density=Current Pop=(MK,readradii) iop(6/33=2) iop(6/42=6)

loop3.cluster38 

   0  1 
C         61.17590       45.93063       40.00742
C         60.39693       45.49545       41.20231
O         60.76744       44.52821       41.84832
H         62.09935       45.32501       39.90426
H         60.55247       45.81080       39.09613
H         61.44907       46.99943       40.12895
N         59.27770       46.17392       41.55352
C         58.46620       45.79456       42.69127
C         57.39051       44.85132       42.17718
O         56.56856       45.23942       41.35807
C         57.96492       47.07832       43.35184
C         57.07416       46.91404       44.52238
O         56.35387       47.84843       44.80272
O         56.83828       45.71533       45.07513
H         58.96995       46.96512       40.96564
H         59.09062       45.26778       43.44854
H         57.38283       47.63984       42.59096
H         58.82315       47.70997       43.66984
N         57.42802       43.54745       42.55971
C         56.65417       42.48212       41.94257
C         55.38875       42.27038       42.74139
O         54.30063       42.41694       42.20347
C         57.48392       41.17651       41.94600
C         58.88620       41.26272       41.32376
C         58.90525       41.55871       39.82400
C         60.29631       41.21197       39.26764
N         60.38029       41.45880       37.83168
H         58.16580       43.27482       43.20489
H         56.41407       42.74232       40.88667
H         56.90847       40.36948       41.44476
H         57.66406       40.85579       42.99300
H         59.34068       40.26351       41.49555
H         59.52271       42.00981       41.84560
H         58.65317       42.62862       39.64581
H         58.15772       40.92027       39.30806
H         60.48905       40.12971       39.45283
H         61.08178       41.79902       39.79375
H         61.32289       41.15514       37.49479
H         59.64920       40.90614       37.32757
H         60.25895       42.47844       37.63776
N         55.47218       41.96285       44.07095
C         54.30452       41.90471       44.94749
C         53.64347       43.28573       45.10485
O         52.58928       43.36128       45.72119
C         54.67969       41.29094       46.33070
C         55.74678       42.05015       47.06845
O         56.11829       41.68237       48.16981
O         56.30161       43.11742       46.47752
H         56.40312       41.80158       44.47755
H         53.56641       41.21015       44.49066
H         55.05763       40.25688       46.16886
H         53.77287       41.23292       46.96770
N         54.19138       44.41663       44.55323
C         53.53706       45.71527       44.57252
C         53.36417       46.31708       45.95136
O         52.48803       47.15240       46.11466
H         55.08094       44.36070       44.04664
H         52.54592       45.61615       44.08056
H         54.12392       46.43698       43.96357
N         54.18468       45.97282       46.98484
C         53.97629       46.46754       48.34925
C         54.63771       47.81524       48.63661
O         54.54259       48.29760       49.75839
C         54.32941       45.35655       49.35529
C         55.78402       44.97672       49.43613
N         56.16228       43.96655       50.25092
O         56.62205       45.57560       48.78224
H         54.93318       45.28864       46.81666
H         52.88874       46.63526       48.49966
H         53.74694       44.45249       49.06608
H         54.00394       45.66655       50.36925
H         55.46092       43.45682       50.80726
H         57.15023       43.69008       50.32258
N         55.28333       48.50247       47.65878
C         55.77698       49.85865       47.79930
C         57.27930       49.96209       47.78847
O         57.77790       51.07343       47.74731
H         55.36171       48.07099       46.74384
H         55.42961       50.33936       48.73590
H         55.37450       50.44949       46.94539
N         58.07037       48.85169       47.87690
C         59.51891       48.98316       47.94975
C         60.22008       47.84135       47.25551
O         59.61607       46.82602       46.97019
C         59.98998       49.20349       49.40257
C         59.71470       48.06240       50.36020
C         58.48649       47.96702       51.04348
C         60.72046       47.11884       50.62512
C         58.27718       46.94315       51.97860
C         60.50676       46.09615       51.55401
C         59.28583       46.00722       52.23686
O         59.07757       45.03043       53.14384
H         57.64827       47.92095       47.96156
H         59.81522       49.87578       47.35763
H         59.53136       50.12997       49.81258
H         61.08331       49.40021       49.39212
H         57.70196       48.69339       50.86905
H         61.66948       47.17531       50.10868
H         57.33547       46.88187       52.51173
H         61.29031       45.37309       51.74146
H         59.76084       44.37619       53.35182
N         61.53501       47.98464       46.93536
C         62.27741       46.97020       46.20799
C         63.18073       46.28270       47.20891
O         63.82379       46.94140       48.01028
C         63.04617       47.60191       45.01984
C         62.07855       48.36040       44.07015
C         63.78849       46.50084       44.22613
C         62.82439       49.27178       43.09462
H         62.02848       48.84438       47.20844
H         61.59174       46.22397       45.76749
H         63.77675       48.32202       45.44754
H         61.39879       49.02507       44.64446
H         61.44236       47.63338       43.51627
H         63.05591       45.79882       43.76700
H         64.41318       46.92522       43.41749
H         64.46528       45.91658       44.87988
H         63.35923       50.05976       43.66830
H         63.55625       48.71808       42.47667
H         62.10097       49.76282       42.41161
N         63.24810       44.92735       47.20847
C         63.98960       44.14458       48.17720
C         65.16991       43.50764       47.49176
O         65.30761       43.63576       46.28745
C         63.04603       43.07886       48.76430
O         62.51691       42.29443       47.72790
H         62.78909       44.42182       46.45505
H         64.38192       44.78920       48.99124
H         62.21169       43.58643       49.29686
H         63.59902       42.43283       49.48074
H         62.08287       41.51385       48.15274
N         66.10610       42.84282       48.21767
C         67.28072       42.25868       47.58526
C         66.87856       41.11357       46.66841
O         67.41006       41.00462       45.57304
C         68.28621       41.79225       48.63894
H         66.00219       42.79510       49.24252
H         67.79752       43.05840       47.00691
H         68.43273       42.59306       49.39737
H         67.94630       40.86838       49.14869
H         69.26938       41.60949       48.15357
N         65.88838       40.25062       47.04665
C         65.39438       39.17164       46.19209
C         64.86160       39.70088       44.86793
O         65.11674       39.09511       43.83667
C         64.29461       38.38348       46.91713
H         65.44612       40.38533       47.97013
H         66.22173       38.45689       45.99121
H         63.41619       39.02690       47.13834
H         63.96491       37.52550       46.29212
H         64.68896       37.97686       47.87410
N         64.12385       40.84431       44.82495
C         63.64163       41.44037       43.57768
C         64.79845       41.85812       42.68644
O         64.78989       41.51594       41.51244
C         62.69453       42.62275       43.89214
C         61.38509       42.03162       44.46463
C         60.34791       42.97597       44.98230
O         59.20521       42.56907       45.07311
O         60.70307       44.01663       45.74074
H         63.92453       41.32896       45.71386
H         63.03616       40.69957       43.00773
H         62.45925       43.18004       42.96359
H         63.19913       43.32443       44.58396
H         61.60379       41.33746       45.29702
H         60.91094       41.44008       43.65267
N         65.85266       42.55788       43.18997
C         66.98999       42.96232       42.38800
H         67.89909       42.43726       42.75072
H         66.85674       42.73394       41.31008
H         67.14227       44.05607       42.49748
H         65.87481       42.77859       44.18884
Ca        57.97692       44.56957       46.64004
O         59.29118       44.21202       49.12555
H         59.44899       45.16568       49.32445
H         59.70965       43.71522       49.87155
O         59.37959       41.76358       47.76156
H         58.45079       41.49989       47.94973
H         59.90310       41.16931       48.34906

Ca 1.70



