%chk=loop4.cluster63.chk
%nprocshared=48
%mem=10GB
%nosave
#b3lyp/svp scf=(tight,noincore) Test 
#IOP(5/87=12) Density=Current Pop=(MK,readradii) iop(6/33=2) iop(6/42=6)

loop4.cluster63 

   -3  1 
C         39.81440       40.68986       42.32225
C         39.98756       40.35602       43.77011
O         41.10079       40.05985       44.17466
H         39.34895       41.69481       42.23622
H         40.80434       40.73119       41.81452
H         39.17786       39.93232       41.82682
N         38.93433       40.46658       44.63811
C         39.09646       40.38039       46.08831
C         40.32535       41.14804       46.52230
O         41.23630       40.55600       47.06979
C         38.90120       38.94061       46.63690
C         39.58157       37.82464       45.90453
O         38.90452       36.96910       45.35456
O         40.91954       37.71274       45.91066
H         38.02764       40.78762       44.27052
H         38.26636       40.93775       46.57400
H         37.81139       38.73054       46.57214
H         39.17254       38.89530       47.71540
N         40.40233       42.49041       46.23796
C         41.50200       43.39720       46.58256
C         41.49608       43.74474       48.07364
O         41.39795       44.92497       48.38383
C         42.86633       42.96849       45.95292
C         43.99408       43.97381       46.32966
C         42.71775       42.91017       44.41531
C         45.31428       43.75062       45.58481
H         39.61644       42.90577       45.71554
H         41.27718       44.37113       46.08609
H         43.14478       41.95985       46.31969
H         44.18789       43.90505       47.42083
H         43.66741       45.01256       46.10316
H         43.57637       42.37681       43.96151
H         41.80845       42.37413       44.10423
H         42.65897       43.93190       43.98287
H         45.66912       42.71330       45.72989
H         45.19170       43.94351       44.49722
H         46.08145       44.46460       45.95388
N         41.57278       42.79454       49.05164
C         41.49625       43.10042       50.46581
C         42.81063       42.99034       51.25173
O         42.77755       43.44791       52.38602
C         40.44135       42.17465       51.11639
C         39.06752       42.40402       50.55435
O         38.48108       43.60860       50.68754
O         38.46983       41.49736       49.99628
H         41.62016       41.81066       48.80921
H         41.17726       44.15749       50.60122
H         40.39175       42.34638       52.21170
H         40.74392       41.11265       50.95413
N         43.99630       42.42556       50.84294
C         44.33201       41.76215       49.59392
C         44.49696       40.29095       49.85632
O         43.51646       39.65852       50.22568
H         44.75949       42.43034       51.53835
H         45.23330       42.24336       49.18956
H         43.62251       41.83636       48.78687
N         45.68394       39.63958       49.72360
C         46.96256       40.27934       49.42040
C         47.06074       40.84248       47.99373
O         46.74531       40.11728       47.06321
C         48.07645       39.23388       49.62994
C         49.43864       39.79907       49.38683
O         50.30749       39.95187       50.40219
O         49.76760       40.10749       48.25800
H         45.68763       38.62963       49.94489
H         47.12029       41.05678       50.18685
H         47.93223       38.35727       48.95921
H         48.01918       38.88398       50.68217
N         47.59765       42.08043       47.71571
C         48.03799       43.03552       48.72651
C         49.19039       43.90924       48.26629
O         49.01291       45.10714       48.11724
H         47.69120       42.35744       46.72571
H         48.43208       42.54076       49.63165
H         47.17019       43.66842       49.00415
N         50.43739       43.36951       48.14101
C         51.63809       44.17760       47.89485
C         51.73901       44.75865       46.48834
O         52.70101       45.48240       46.23559
C         52.93617       43.45895       48.37437
C         53.15683       42.00006       47.94343
C         53.00717       41.78966       46.46402
N         52.02724       40.98609       45.99063
O         53.76697       42.34642       45.68738
H         50.54747       42.37761       48.35244
H         51.59172       45.07181       48.55429
H         52.92186       43.43844       49.48784
H         53.81376       44.07877       48.08670
H         52.43797       41.35587       48.49062
H         54.16572       41.67151       48.27787
H         51.38624       40.51332       46.63591
H         51.90289       40.84042       44.98031
N         50.75829       44.60165       45.55170
C         50.68752       45.46622       44.37536
C         51.48691       44.91716       43.21442
O         51.60721       43.70935       43.10700
C         49.21652       45.84024       44.03893
C         48.38185       44.65748       43.51705
C         49.14287       47.00867       43.04517
H         49.93596       44.03029       45.79043
H         51.15386       46.43818       44.65964
H         48.75619       46.19658       44.98816
H         48.76011       44.30773       42.53329
H         48.38589       43.80336       44.22288
H         47.32535       44.97844       43.39327
H         49.55348       46.72124       42.05508
H         48.08862       47.32930       42.91099
H         49.71489       47.87879       43.43472
N         52.08871       45.77683       42.33522
C         52.96088       45.41606       41.21478
C         52.27007       44.55831       40.14982
O         51.99334       45.05527       39.06437
C         54.28014       44.77876       41.73429
C         55.34705       44.56439       40.68317
N         56.47341       43.88545       41.00424
O         55.20524       44.99978       39.54989
H         51.95476       46.78785       42.49368
H         53.24338       46.37939       40.72987
H         54.06840       43.80480       42.21470
H         54.71891       45.42933       42.52042
H         56.59375       43.49262       41.94960
H         57.21316       43.73429       40.30239
N         52.07969       43.22732       40.35955
C         51.69593       42.26865       39.33302
C         50.82806       41.16191       39.91319
O         50.46489       41.25301       41.07773
C         53.00024       41.71924       38.70655
C         54.03512       41.02710       39.59127
C         53.83324       40.66355       40.94610
C         55.27751       40.74464       39.00462
C         54.85573       40.05532       41.67798
C         56.29571       40.13757       39.73996
C         56.08860       39.79358       41.08057
O         57.06712       39.20803       41.79884
H         52.44390       42.84158       41.22635
H         51.12357       42.76536       38.51626
H         53.50365       42.60700       38.26501
H         52.76647       41.04456       37.85804
H         52.90168       40.82124       41.45501
H         55.45793       41.00922       37.97043
H         54.68663       39.78489       42.71376
H         57.24686       39.93791       39.26578
H         57.93138       39.01075       41.41073
N         50.51983       40.05278       39.16855
C         49.79364       38.87532       39.65305
C         48.29696       39.12860       39.68922
O         47.58995       38.49804       38.91229
C         50.41363       38.27196       40.94273
C         51.85069       37.74580       40.71284
C         51.93092       36.47760       39.89587
O         50.92299       35.92949       39.47725
O         53.13293       35.91881       39.65934
H         50.87236       40.00497       38.20161
H         49.89913       38.09580       38.86881
H         49.79598       37.43238       41.32529
H         50.43490       39.02692       41.75062
H         52.30683       37.51799       41.69909
H         52.46588       38.52502       40.22079
N         47.72738       40.05228       40.51035
C         46.32577       40.42312       40.36113
C         46.16818       41.11760       39.02180
O         45.40533       40.65197       38.18642
C         45.86032       41.34649       41.50820
C         45.97237       40.66611       42.88058
C         45.09867       39.45716       43.00439
O         45.59202       38.36323       43.22803
O         43.76399       39.58240       42.94233
H         48.29730       40.54202       41.20634
H         45.68810       39.51054       40.39039
H         44.80276       41.64927       41.33707
H         46.47945       42.26897       41.53038
H         45.66790       41.37975       43.66963
H         47.02560       40.38134       43.07837
N         46.88735       42.24366       38.74915
C         46.81535       42.91628       37.47079
H         47.31899       43.90379       37.54354
H         47.33534       42.31373       36.69513
H         45.75813       43.08265       37.17667
H         47.51014       42.63542       39.47135
Ca        42.56613       37.82484       43.63966
O         43.85252       39.08017       46.05222
H         44.51802       39.80703       45.98652
H         43.27845       39.34691       46.80929
O         43.92159       35.70745       42.50251
H         44.07437       34.89949       43.05235
H         43.15088       35.47765       41.92530
O         43.53933       36.06740       46.06315
H         43.37741       36.35070       46.99817
H         44.42852       35.63300       46.08450
O         40.81134       35.82646       42.96439
H         40.58655       34.93125       43.31764
H         40.10841       36.42583       43.31469

Ca 1.70



