%chk=loop2.cluster17.chk
%nprocshared=48
%mem=10GB
%nosave
#b3lyp/svp scf=(tight,noincore) Test 
#IOP(5/87=12) Density=Current Pop=(MK,readradii) iop(6/33=2) iop(6/42=6)

loop2.cluster17 

   -2  1 
C         48.11153       44.12223        9.14794
C         47.18945       45.29430        8.95334
O         47.35006       46.27971        9.65795
H         48.99032       44.44243        9.74733
H         47.59086       43.31201        9.70088
H         48.49810       43.73916        8.18856
N         46.17527       45.29602        8.04085
C         45.89972       44.20905        7.09681
C         44.42476       44.17220        6.71038
O         43.69232       45.10427        6.99127
C         46.81930       44.28398        5.84151
C         46.90412       45.63643        5.18901
O         47.66232       45.79905        4.24588
O         46.19800       46.67948        5.66047
H         45.58316       46.13918        8.00584
H         46.06736       43.24010        7.61129
H         46.49083       43.54527        5.07673
H         47.85491       44.02371        6.12418
N         43.91494       43.06026        6.10637
C         42.50347       42.85698        5.75989
C         42.01397       43.64691        4.54634
O         41.02781       43.24024        3.94744
C         41.57423       43.01893        6.97325
H         44.55479       42.26712        5.94539
H         42.43687       41.79187        5.44767
H         40.54589       42.68917        6.71710
H         41.94339       42.39552        7.81525
H         41.51523       44.07349        7.31504
N         42.67826       44.73960        4.08514
C         42.33549       45.42353        2.84486
C         43.59598       46.04076        2.27933
O         44.28225       46.75152        2.99927
C         41.17225       46.44212        3.00030
C         41.27427       47.44124        4.12444
O         42.23120       47.32087        5.06342
O         40.41089       48.29780        4.24664
H         43.50693       45.06926        4.58880
H         41.99164       44.68689        2.08849
H         40.22605       45.88476        3.15589
H         41.07953       46.99622        2.03723
N         43.99318       45.76027        0.99995
C         45.18281       46.34302        0.40256
C         44.86585       47.70081       -0.17985
O         45.09609       47.91856       -1.36079
H         43.42729       45.12122        0.42224
H         45.53903       45.68421       -0.42004
H         46.00438       46.39334        1.15107
N         44.34243       48.67137        0.61421
C         44.00343       50.00869        0.16627
C         45.02124       51.00626        0.68610
O         44.96227       52.16892        0.30984
C         42.56057       50.34672        0.64380
C         42.38579       50.56584        2.14486
N         41.48964       51.46871        2.60597
O         43.01970       49.90344        2.94673
H         44.20792       48.46841        1.59772
H         44.03508       50.04067       -0.94380
H         41.89783       49.50533        0.34715
H         42.19343       51.25291        0.12045
H         40.90974       52.01464        1.95457
H         41.35874       51.59888        3.62174
N         45.96547       50.61952        1.59566
C         46.89154       51.52958        2.22231
C         46.40145       51.83952        3.62090
O         45.34609       51.35163        4.00493
H         45.96769       49.66064        1.95341
H         46.95492       52.47735        1.65554
H         47.89999       51.06059        2.22994
N         47.05134       52.69747        4.44545
C         48.32121       53.34294        4.12881
C         49.36703       53.10318        5.21601
O         50.52441       53.43098        4.98790
C         48.06452       54.85676        3.96977
C         47.13077       55.11873        2.77388
O         47.49398       55.34509        5.16147
H         46.57820       52.94650        5.32523
H         48.75079       52.95061        3.18315
H         49.03061       55.37521        3.78158
H         47.22492       56.28704        5.01186
H         47.58285       54.71714        1.84267
H         46.13781       54.64402        2.92942
H         46.97747       56.20819        2.63553
N         49.01819       52.61872        6.45045
C         49.92349       52.51105        7.58360
C         50.63969       53.84081        7.81664
O         51.75611       54.00125        7.34477
C         50.81545       51.23733        7.54188
C         49.87620       49.98930        7.48257
C         51.64913       51.18220        8.84587
C         50.56303       48.62008        7.47937
H         48.04069       52.39201        6.64985
H         49.29340       52.31476        8.46408
H         51.49658       51.27924        6.66453
H         49.20336       50.02751        6.59663
H         49.22666       50.02709        8.38446
H         52.23170       52.11007        9.00772
H         50.97332       51.04544        9.71675
H         52.38371       50.35711        8.84289
H         51.40159       48.55446        8.19581
H         49.82163       47.85449        7.79744
H         50.92532       48.36154        6.46432
N         50.04262       54.88421        8.46935
C         48.72831       54.80934        9.11111
C         48.71818       53.84221       10.28868
O         47.73319       53.13862       10.46834
C         48.19885       56.20476        9.51170
C         49.06097       57.04789       10.42065
O         50.14028       56.65113       10.82749
O         48.64024       58.28045       10.76117
H         50.55880       55.77666        8.50718
H         47.99120       54.43832        8.36406
H         47.20342       56.07779        9.99039
H         48.05427       56.78413        8.57490
N         49.83950       53.65599       11.03820
C         49.95062       52.59600       12.04235
C         48.95704       52.82978       13.18881
O         48.40594       53.91449       13.25572
C         51.44968       52.44301       12.42647
C         52.05897       53.57836       13.21097
C         52.69323       54.65492       12.56020
C         52.06576       53.52390       14.61308
C         53.30656       55.66502       13.30651
C         52.69122       54.53041       15.35398
C         53.30912       55.60088       14.70184
H         50.66616       54.22131       10.81893
H         49.65175       51.65450       11.53885
H         52.02389       52.33048       11.48286
H         51.70152       51.50135       12.93362
H         52.72432       54.71106       11.48005
H         51.60323       52.69137       15.12809
H         53.79122       56.49144       12.80203
H         52.70482       54.47485       16.43422
H         53.79746       56.37616       15.27752
N         48.62682       51.85446       14.10624
C         49.25727       50.55685       14.25821
C         48.62304       49.44195       13.43069
O         47.71405       49.69654       12.64618
C         49.03770       50.31609       15.75875
C         47.62485       50.83624       15.96330
C         47.66617       52.13576       15.16410
H         50.33801       50.55555       14.09733
H         49.22277       49.28780       16.12271
H         49.72354       50.99727       16.31367
H         46.92895       50.12009       15.46988
H         47.31019       50.96704       17.02047
H         46.65350       52.39895       14.78451
H         48.06610       52.96194       15.78884
N         49.03837       48.15242       13.61977
C         48.31769       46.99714       13.10165
C         49.16089       45.72953       12.79822
O         48.54098       44.68967       12.62152
C         47.19904       46.62470       14.10979
C         47.73683       46.32770       15.52194
C         46.76290       45.51752       16.32656
O         47.15630       44.34517       16.86280
O         45.61713       45.90370       16.48995
H         49.73312       47.98758       14.36029
H         47.79668       47.25165       12.15299
H         46.65744       45.74059       13.70939
H         46.44733       47.44267       14.18419
H         47.94927       47.28970       16.03460
H         48.68137       45.74680       15.47001
N         50.52061       45.67547       12.64179
C         51.43063       46.79340       12.68732
H         52.42907       46.45341       12.33425
H         51.08840       47.59656       12.00333
H         51.57628       47.14708       13.72480
H         50.93020       44.75808       12.39940
Ca        44.07379       48.61377        5.14618
O         46.75895       48.75888        4.04858
H         47.60297       49.20424        3.79523
H         46.73417       47.94797        3.48319
O         43.15748       50.84534        6.47918
H         42.23273       50.62240        6.75304
H         43.35747       51.70813        6.91849
O         46.06856       49.96408        7.22296
H         46.23714       50.92815        7.37037
H         45.92026       49.59754        8.13062
O         43.37723       47.96046        7.88313
H         43.31600       47.04791        8.25202
H         43.16899       48.53526        8.65866

Ca 1.70



