%chk=loop1.cluster118.chk
%nprocshared=48
%mem=10GB
%nosave
#b3lyp/svp scf=(tight,noincore) Test 
#IOP(5/87=12) Density=Current Pop=(MK,readradii) iop(6/33=2) iop(6/42=6)

loop1.cluster118 

   0  1 
C         95.55963      112.44551       78.01165
C         94.32424      113.15425       77.55280
O         93.34860      113.19489       78.28953
H         96.38007      113.18973       78.09676
H         95.39765      111.98476       79.00951
H         95.84952      111.65833       77.28643
N         94.29955      113.75480       76.33068
C         93.18605      114.58677       75.88827
C         92.45846      113.93368       74.74026
O         93.06207      113.18310       73.98271
C         93.72595      115.95581       75.43494
C         94.63706      116.56098       76.46657
O         94.13623      117.06189       77.61059
O         95.84428      116.56741       76.28006
H         95.11744      113.65317       75.70773
H         92.46229      114.74020       76.71890
H         92.90120      116.66243       75.19037
H         94.31696      115.79742       74.50612
N         91.13121      114.17064       74.55743
C         90.39047      113.58934       73.44428
C         90.77821      114.26774       72.15383
O         90.54264      113.70053       71.09821
C         88.86915      113.65078       73.70740
C         88.56175      112.78009       74.93955
C         87.13797      112.92825       75.48158
C         87.10932      112.41657       76.93583
N         85.83463      112.69460       77.59225
H         90.64189      114.78998       75.22405
H         90.66611      112.51446       73.35687
H         88.28078      113.28947       72.83650
H         88.58732      114.71154       73.90324
H         89.24615      113.11161       75.74351
H         88.78387      111.70948       74.73000
H         86.40209      112.40302       74.83178
H         86.88278      114.00843       75.50686
H         87.90142      112.95736       77.50259
H         87.34025      111.32842       76.98294
H         85.96084      112.57706       78.62447
H         85.53986      113.68222       77.41310
H         85.10165      112.03148       77.25630
N         91.36562      115.50338       72.16460
C         91.78026      116.16256       70.94365
C         93.12649      116.84346       71.12857
O         93.30481      117.60344       72.06778
C         90.68162      117.13895       70.50788
C         90.91730      117.66712       69.12668
O         90.85027      118.98613       68.89968
O         91.10712      116.89930       68.19498
H         91.43941      116.02897       73.04710
H         91.86048      115.41655       70.12501
H         90.55802      117.97246       71.23379
H         89.73054      116.57074       70.45604
N         94.09119      116.66544       70.18563
C         95.33629      117.42579       70.19693
C         96.08463      117.28784       68.87510
O         95.78205      116.40074       68.09479
H         93.87404      116.05827       69.38719
H         95.97973      117.13059       71.05384
H         95.07966      118.49362       70.32499
N         97.07275      118.17565       68.55472
C         97.85196      118.07410       67.31484
C         99.30036      117.94478       67.67070
O         99.80381      118.78491       68.40375
C         97.77031      119.33930       66.44891
C         96.39627      119.70999       66.04659
O         95.87660      120.86796       66.49063
O         95.76468      119.00131       65.27975
H         97.28565      118.93970       69.21224
H         97.51977      117.21124       66.69621
H         98.36824      119.18377       65.52030
H         98.20587      120.19662       67.00271
N        100.06134      116.96051       67.12413
C        101.47916      116.86188       67.40693
C        101.68785      115.99589       68.61879
O        102.35018      114.97523       68.50322
H         99.64332      116.31791       66.43517
H        101.93008      117.87209       67.51999
H        101.97913      116.38684       66.53485
N        101.09937      116.30887       69.81048
C        101.13132      115.41913       70.95769
C        101.75996      116.07293       72.15740
O        101.42522      117.19819       72.50564
C         99.73109      114.85958       71.28899
C         98.64219      115.90878       71.53526
O         99.32880      114.02745       70.23376
H        100.55772      117.17507       69.89983
H        101.73729      114.51749       70.72996
H         99.85108      114.24508       72.21488
H         98.69555      113.36665       70.61837
H         98.89063      116.56551       72.39255
H         98.47606      116.52331       70.62696
H         97.69036      115.38369       71.76610
N        102.65938      115.35268       72.87842
C        103.30921      115.83343       74.07954
C        104.81118      115.82767       73.84517
O        105.57280      115.55466       74.76266
C        102.87511      114.94022       75.28314
C        103.30002      113.45029       75.10038
C        101.34736      115.04059       75.47732
C        103.17477      112.62559       76.37829
H        102.89191      114.40047       72.56242
H        103.01889      116.88529       74.29922
H        103.37722      115.35757       76.18297
H        104.36578      113.38719       74.80340
H        102.70351      112.96620       74.29587
H        101.02599      116.10272       75.51826
H        100.81179      114.55312       74.63216
H        101.02760      114.55131       76.41823
H        102.12588      112.56696       76.72916
H        103.53524      111.59279       76.18226
H        103.81040      113.07168       77.17235
N        105.29339      116.05960       72.58945
C        106.69799      115.93707       72.24072
C        106.85964      114.77979       71.27352
O        105.98015      114.52711       70.46191
C        107.23384      117.26763       71.67348
C        108.74741      117.21558       71.43968
O        106.59857      117.59458       70.46443
H        104.63161      116.27893       71.83192
H        107.29757      115.70574       73.14844
H        107.05928      118.07004       72.42818
H        105.69040      117.92270       70.69067
H        109.10432      118.20089       71.07522
H        109.27799      116.97911       72.38782
H        109.00834      116.44941       70.68018
N        107.98034      114.01768       71.34567
C        108.19641      112.81876       70.54018
C        108.44694      111.58746       71.40309
O        108.47667      110.48919       70.85991
C        109.42211      113.03856       69.61622
C        110.73572      113.23191       70.42390
O        109.15838      114.14664       68.78755
H        108.71350      114.32276       71.99540
H        107.30276      112.61332       69.90912
H        109.55109      112.13837       68.97414
H        110.01643      114.57157       68.52760
H        110.94633      112.35443       71.07139
H        111.59776      113.34260       69.73539
H        110.69531      114.13946       71.05958
N        108.80202      111.70760       72.71730
C        109.46786      110.62763       73.42671
C        108.50649      109.56404       73.91702
O        107.31124      109.80887       74.00854
C        110.49680      111.20981       74.42958
C        109.92547      112.05006       75.59966
C        109.50129      111.23836       76.82681
C        110.73253      110.62965       77.52863
N        110.36885      109.94512       78.76501
H        108.84629      112.63878       73.13546
H        110.11363      110.12088       72.67254
H        111.11715      111.90815       73.82220
H        111.19814      110.42959       74.77768
H        109.08060      112.67939       75.25688
H        110.71132      112.75721       75.94634
H        108.76811      110.45453       76.54030
H        109.00628      111.93071       77.54196
H        111.46877      111.42929       77.77253
H        111.22875      109.90830       76.85228
H        109.48809      109.41365       78.63622
H        111.13748      109.28624       79.02979
H        110.21955      110.63521       79.53368
N        108.97434      108.30373       74.13499
C        108.10468      107.14225       74.33698
C        107.36056      106.82026       73.04598
O        107.94537      106.95111       71.98002
C        108.95270      105.90015       74.72852
C        109.03016      105.68814       76.24493
C        109.47669      106.88554       77.00679
O        110.59535      107.34695       76.85092
O        108.62649      107.44460       77.88539
H        109.98937      108.14792       74.03748
H        107.37848      107.34445       75.15087
H        109.95815      105.93986       74.25449
H        108.46901      104.96971       74.36010
H        109.68986      104.82650       76.47678
H        108.00467      105.43929       76.59782
N        106.09285      106.30965       73.04540
C        105.34442      106.02503       74.25367
H        104.35385      105.59664       73.98920
H        105.88591      105.27862       74.87442
H        105.17155      106.95305       74.83639
H        105.65137      106.08160       72.14119
Ca        91.88233      121.16742       67.68809
O         93.28149      118.80586       67.43591
H         93.41436      117.94814       67.90134
H         93.95078      118.78719       66.71972
O         90.26349      123.15122       66.68460
H         89.55647      122.73123       66.13433
H         91.01388      123.29923       66.05554
O         90.64944      121.74508       70.04624
H         90.14962      122.59051       69.92433
H         90.19222      121.27386       70.78505
O         93.84496      120.65881       69.59317
H         93.87689      120.76847       70.57549
H         94.78945      120.57759       69.30815
O         93.36766      121.96835       65.60905
H         93.57132      122.61816       64.89476
H         93.81191      121.13103       65.32926
O         93.06427      123.42013       68.87947
H         93.18676      124.07836       68.15093
H         92.47423      123.87101       69.53351
O         90.58546      119.54349       65.86902
H         90.62434      118.58666       65.62160
H         89.95072      119.95282       65.23004

Ca 1.70



