%chk=loop1.cluster35.chk
%nprocshared=48
%mem=10GB
%nosave
#b3lyp/svp scf=(tight,noincore) Test 
#IOP(5/87=12) Density=Current Pop=(MK,readradii) iop(6/33=2) iop(6/42=6)

loop1.cluster35 

   0  1 
C         41.96227       37.80144       11.81274
C         41.74320       38.15799       10.37664
O         42.37667       39.07817        9.88894
H         42.69656       38.49233       12.27990
H         41.00070       37.87776       12.36233
H         42.34693       36.76372       11.87912
N         40.81041       37.48715        9.64626
C         40.51856       37.80523        8.25075
C         39.29602       38.69417        8.09365
O         38.81821       38.84800        6.97736
C         40.50883       36.54128        7.36355
C         39.50761       35.46493        7.68029
O         39.44640       34.48082        6.96009
O         38.68368       35.56038        8.73935
H         40.24804       36.76912       10.12167
H         41.32740       38.43839        7.82569
H         41.51472       36.07980        7.39133
H         40.31304       36.86736        6.33055
N         38.83555       39.44123        9.13819
C         37.86901       40.52354        8.98233
C         38.46048       41.77073        9.64735
O         38.57330       41.75596       10.86662
C         36.56575       40.13558        9.71020
C         35.81110       38.96590        9.05656
C         34.95999       39.43510        7.86741
C         34.09545       38.29261        7.31664
N         33.11694       38.79767        6.35298
H         39.23695       39.29804       10.07748
H         37.64993       40.70819        7.91356
H         35.87632       41.00485        9.79582
H         36.84318       39.83303       10.74402
H         35.10274       38.57037        9.81635
H         36.50425       38.14059        8.78169
H         35.58492       39.86774        7.05736
H         34.27583       40.22580        8.24749
H         33.54290       37.81487        8.15591
H         34.74072       37.52134        6.83927
H         32.54188       39.55472        6.79143
H         33.59887       39.16951        5.50351
H         32.47524       38.01998        6.07625
N         38.90307       42.88436        8.97950
C         38.94954       43.10180        7.53481
C         37.56444       43.24405        6.90045
O         36.58042       42.89886        7.53543
C         39.84931       42.03931        6.82763
C         41.13281       42.57804        6.24705
O         41.54601       43.83501        6.49408
O         41.80982       41.86105        5.53574
H         39.28796       43.64733        9.55874
H         39.39686       44.10833        7.40848
H         39.27115       41.56412        6.00875
H         40.13799       41.21871        7.51586
N         37.38707       43.76661        5.64590
C         38.46302       44.35376        4.86192
C         38.00800       44.71851        3.46034
O         37.10043       45.52925        3.33718
H         36.43092       43.78755        5.25888
H         39.30509       43.66351        4.81614
H         38.81728       45.28264        5.36499
N         38.59339       44.20552        2.33262
C         39.64602       43.18358        2.33715
C         39.03190       41.85578        2.80780
O         37.82146       41.70131        2.74522
C         40.24966       43.10602        0.90177
C         41.46258       42.24498        0.64741
O         41.93538       42.19685       -0.47539
O         42.05755       41.55726        1.62279
H         38.26161       44.55872        1.42062
H         40.46394       43.51779        3.01172
H         40.56646       44.13716        0.62460
H         39.45345       42.78543        0.19955
N         39.81743       40.86176        3.30586
C         39.26356       39.58093        3.73108
C         40.29404       38.50185        4.07220
O         39.91806       37.33628        4.01016
H         40.81048       41.02994        3.37166
H         38.65834       39.18279        2.88834
H         38.56481       39.72145        4.58319
N         41.60225       38.77311        4.39185
C         42.59198       37.73748        4.68311
C         43.44780       38.09860        5.88712
O         43.77828       39.26325        6.08183
C         43.53087       37.49280        3.48168
C         42.77739       37.06821        2.22185
O         44.49801       36.52207        3.79832
H         41.93626       39.73867        4.41775
H         42.09288       36.76240        4.87220
H         44.07070       38.41963        3.24460
H         44.02606       35.67080        3.99169
H         42.12736       37.89146        1.85974
H         43.51154       36.81949        1.42726
H         42.15692       36.17071        2.42996
N         43.91757       37.11113        6.69348
C         44.77072       37.34206        7.85583
C         46.14642       37.89552        7.51433
O         46.73444       38.54018        8.35887
C         44.90477       36.03401        8.67495
C         45.56911       36.29899       10.04360
C         45.66307       34.92918        7.89463
C         45.30602       35.16360       11.02628
H         43.61651       36.14841        6.48148
H         44.24362       38.08795        8.48960
H         43.85950       35.70163        8.86192
H         45.12939       37.21410       10.49591
H         46.66358       36.46561        9.92425
H         45.21279       34.72989        6.90187
H         46.72305       35.21970        7.72787
H         45.64951       33.96994        8.44508
H         44.20858       35.04575       11.15947
H         45.73481       34.20604       10.67249
H         45.75536       35.41363       12.00825
N         46.71413       37.63612        6.30281
C         48.01937       38.08902        5.81372
C         49.05513       38.59847        6.82804
O         50.08486       37.95728        6.99151
C         47.74590       39.09838        4.67327
C         49.02184       39.59635        3.98003
O         46.99690       40.17550        5.17616
H         46.16334       37.08364        5.63341
H         48.49389       37.19028        5.35739
H         47.12830       38.55583        3.92442
H         46.89335       40.83402        4.45085
H         49.46136       40.44383        4.53977
H         49.76639       38.77975        3.88363
H         48.76920       39.96988        2.96605
N         48.89287       39.79710        7.45200
C         49.91508       40.49408        8.22608
C         50.99709       41.03877        7.30612
O         51.16663       40.54718        6.19964
C         50.40992       39.77241        9.50537
C         49.23099       39.45532       10.42699
O         51.27810       40.62069       10.21686
H         48.02240       40.30940        7.29140
H         49.40508       41.40522        8.59360
H         50.92501       38.81417        9.25850
H         52.20458       40.29079       10.08479
H         48.55888       38.71429        9.95871
H         49.59374       39.03376       11.38703
H         48.65675       40.38304       10.64711
N         51.66575       42.17162        7.66286
C         52.57576       42.88083        6.78048
C         52.20257       44.33566        6.40783
O         52.98039       44.87795        5.63633
C         53.99740       42.84419        7.41747
C         55.05716       42.14333        6.54977
C         55.53796       42.92155        5.31457
C         56.50792       42.03401        4.51179
N         57.08343       42.73928        3.36818
H         51.55310       42.51433        8.61387
H         52.61304       42.35015        5.80371
H         53.94480       42.21999        8.33701
H         54.33350       43.84462        7.77169
H         54.64742       41.15608        6.24380
H         55.95036       41.96079        7.18673
H         56.05755       43.84698        5.65092
H         54.68842       43.20508        4.65967
H         55.95745       41.13693        4.14752
H         57.33441       41.68963        5.17222
H         56.33131       43.04037        2.70769
H         57.62847       43.56922        3.69592
H         57.73327       42.08969        2.86711
N         51.13089       45.10098        6.83147
C         49.98473       44.82669        7.70223
C         50.36782       44.47861        9.12321
O         49.72022       43.64772        9.74787
C         48.92104       43.93458        7.03251
C         48.55713       44.45987        5.63089
C         47.45724       43.63739        5.05351
O         46.30941       43.54935        5.74600
O         47.60323       43.04849        3.99420
H         51.12497       46.06577        6.46151
H         49.46304       45.80456        7.82257
H         48.00964       43.93468        7.67715
H         49.26217       42.89698        6.92566
H         49.44741       44.42396        4.96728
H         48.19674       45.50759        5.70413
N         51.45356       45.07002        9.69139
C         51.90583       44.72729       11.02049
H         52.82158       45.30839       11.26008
H         51.11928       44.96833       11.76445
H         52.15452       43.64464       11.07191
H         51.99519       45.76049        9.15205
Ca        44.54469       42.18099        5.55259
O         44.66813       40.69673        3.42591
H         43.84579       41.03853        3.00992
H         45.20906       40.33728        2.68364
O         46.02851       41.73672        7.84958
H         46.73460       41.85728        8.53035
H         45.74497       40.79298        7.93106
O         43.08939       41.48436        8.22793
H         42.74169       40.61146        7.91884
H         42.98297       41.46475        9.21051
O         43.60420       43.95508        3.64389
H         43.10190       43.33479        3.06201
H         42.90750       44.52830        4.04857
O         44.29627       44.44774        7.37199
H         45.17315       44.89086        7.49155
H         43.79105       44.67230        8.19076

Ca 1.70



