%chk=loop2.cluster74.chk
%nprocshared=48
%mem=10GB
%nosave
#b3lyp/svp scf=(tight,noincore) Test 
#IOP(5/87=12) Density=Current Pop=(MK,readradii) iop(6/33=2) iop(6/42=6)

loop2.cluster74 

   -2  1 
C         74.89326      103.25213       -6.12356
C         74.74200      104.74311       -6.21938
O         75.47679      105.46093       -5.55651
H         75.72872      102.97780       -5.44330
H         73.96033      102.81625       -5.71979
H         75.09506      102.82185       -7.12683
N         73.77517      105.28402       -7.01669
C         73.57232      106.72889       -7.13704
C         72.27354      107.04389       -7.85765
O         71.44597      107.74370       -7.29899
C         74.75097      107.40269       -7.87535
C         74.51440      108.88149       -8.05490
O         74.52570      109.37262       -9.17275
O         74.26127      109.66193       -6.98668
H         73.15135      104.64129       -7.53027
H         73.49503      107.15974       -6.11305
H         74.89444      106.93315       -8.87407
H         75.68506      107.26725       -7.29535
N         72.03928      106.55796       -9.10812
C         70.83233      106.81114       -9.89303
C         69.53481      106.57734       -9.12014
O         68.58982      107.34150       -9.26515
C         70.90804      108.18079      -10.57754
H         72.75246      105.94557       -9.53064
H         70.84702      106.06146      -10.71233
H         70.09748      108.27415      -11.33219
H         70.82593      109.00897       -9.84332
H         71.88042      108.27145      -11.10957
N         69.45128      105.53361       -8.24772
C         68.26098      105.16157       -7.48346
C         67.58938      106.33156       -6.77287
O         66.36919      106.33785       -6.66327
C         67.25872      104.38470       -8.36814
C         67.88509      103.25939       -9.15219
O         67.32534      102.83790      -10.15116
O         69.06234      102.72229       -8.77621
H         70.29390      104.95961       -8.10037
H         68.60122      104.45989       -6.69653
H         66.79878      105.09379       -9.08778
H         66.44190      103.95672       -7.74247
N         68.31615      107.37229       -6.27205
C         67.67826      108.48250       -5.58815
C         67.04971      108.01406       -4.30122
O         67.29686      106.89326       -3.87749
H         69.33076      107.39144       -6.39544
H         66.89218      108.90342       -6.25457
H         68.40917      109.29206       -5.37118
N         66.17912      108.82556       -3.64126
C         65.40492      108.38101       -2.48576
C         66.26417      108.00401       -1.29110
O         65.77615      107.33552       -0.38824
C         64.37326      107.31851       -2.93167
C         63.46763      107.94345       -3.97516
N         63.44466      107.48253       -5.24661
O         62.77312      108.90278       -3.67053
H         65.99100      109.76567       -4.01776
H         64.80425      109.23877       -2.11819
H         63.74352      106.99354       -2.07511
H         64.88343      106.41796       -3.33590
H         64.03299      106.68793       -5.53015
H         62.84984      107.94197       -5.95318
N         67.52202      108.51255       -1.15941
C         68.30340      108.39661        0.05500
C         69.47799      107.47821       -0.10301
O         70.33711      107.48357        0.76360
H         67.93108      109.06747       -1.92694
H         67.70515      108.06506        0.92953
H         68.68973      109.41420        0.28428
N         69.57080      106.63240       -1.17105
C         70.73940      105.80079       -1.38379
C         70.39080      104.34956       -1.20257
O         69.25657      103.94476       -1.40504
C         71.32916      106.04623       -2.79305
C         71.60488      107.53286       -3.04289
O         72.50427      105.29585       -2.98698
H         68.80555      106.56925       -1.85202
H         71.52353      106.04795       -0.63640
H         70.58705      105.71538       -3.55344
H         73.17270      105.60252       -2.31866
H         70.66110      108.11515       -2.97335
H         72.32485      107.92495       -2.29398
H         72.01930      107.67425       -4.06184
N         71.38130      103.50428       -0.82431
C         71.19033      102.07056       -0.65826
C         70.67588      101.44807       -1.93692
O         70.88745      102.00737       -3.00407
C         72.52663      101.40225       -0.21033
C         73.66007      101.64274       -1.26317
C         72.91636      101.92591        1.18814
C         75.00757      101.03634       -0.89240
H         72.30240      103.91550       -0.64562
H         70.41127      101.91558        0.12180
H         72.34820      100.30870       -0.11241
H         73.84625      102.72353       -1.42255
H         73.35528      101.21601       -2.24246
H         72.06722      101.80152        1.89318
H         73.76947      101.35379        1.60213
H         73.19669      102.99978        1.16728
H         75.39348      101.47412        0.05075
H         74.92072       99.93619       -0.79691
H         75.74233      101.27892       -1.69043
N         69.99307      100.26823       -1.89835
C         69.48195       99.63696       -3.10296
C         68.07456       99.12523       -2.85828
O         67.90990       97.97223       -2.48171
C         70.44154       98.51987       -3.54837
C         70.12708       98.02055       -4.93635
O         69.20792       98.65283       -5.69439
O         70.78138       97.10941       -5.41520
H         69.85146       99.79775       -0.99098
H         69.45991      100.36868       -3.93018
H         70.42061       97.69171       -2.81091
H         71.47847       98.92463       -3.58159
N         67.00887       99.96546       -2.97097
C         65.65011       99.53365       -2.65689
C         64.77891      100.78743       -2.50515
O         63.95241      101.04749       -3.36433
C         65.12536       98.55295       -3.74359
C         64.07263       97.60697       -3.20729
C         62.71535       97.76051       -3.53008
C         64.46871       96.52327       -2.39808
C         61.77110       96.84372       -3.04811
C         63.52456       95.60547       -1.92935
C         62.17696       95.76444       -2.25391
H         67.18241      100.94810       -3.23445
H         65.67188       98.98228       -1.70205
H         65.93820       97.89413       -4.11567
H         64.78228       99.11152       -4.64042
H         62.38894       98.58981       -4.14295
H         65.51261       96.38157       -2.14617
H         60.72263       96.97163       -3.28309
H         63.83854       94.77172       -1.31311
H         61.44524       95.05924       -1.87934
N         64.98881      101.67409       -1.47425
C         65.87627      101.45449       -0.34682
C         65.49107      100.22368        0.47399
O         66.34201       99.37786        0.69504
C         65.70475      102.72790        0.50107
C         65.30815      103.76812       -0.53021
C         64.37282      102.98504       -1.45257
H         66.92359      101.39192       -0.71993
H         64.82826      102.62807        1.17663
H         66.59427      102.98815        1.11627
H         64.87431      104.70400       -0.11628
H         66.22523      104.02589       -1.10709
H         63.34258      102.89142       -1.04953
H         64.37208      103.48874       -2.44478
N         64.19983      100.06444        0.92617
C         63.71248       98.92431        1.71721
C         64.77339       98.33176        2.61700
O         65.11926       97.16370        2.48204
C         63.02547       97.87461        0.82345
C         61.81077       98.39265        0.03668
C         60.67627       98.85594        0.91011
O         59.62694       98.23182        0.92635
O         60.79056       99.97842        1.64367
H         63.50167      100.77325        0.66111
H         62.95367       99.29545        2.43399
H         62.67301       97.02805        1.45618
H         63.77571       97.47338        0.11173
H         61.43110       97.54006       -0.54953
H         62.10365       99.19622       -0.67227
N         65.32710       99.11170        3.58322
C         66.36886       98.64931        4.47151
H         67.25171       99.31046        4.35429
H         66.00807       98.70451        5.51916
H         66.68128       97.60611        4.25599
H         64.99207      100.08161        3.69219
Ca        69.90805      100.01968       -7.36224
O         69.16541      102.18607       -5.58309
H         69.86116      102.86808       -5.40981
H         68.52825      102.28240       -4.83196
O         66.97645      100.08799       -7.00538
H         66.60141       99.26075       -7.39966
H         66.21021      100.52521       -6.55735
O         72.24133      100.86149       -5.88282
H         72.91863      100.14272       -5.82334
H         72.29490      101.32337       -5.01033
O         68.99825       99.03760       -9.81762
H         69.64436       98.31116      -10.00517
H         68.13033       98.69900      -10.15007

Ca 1.70



