%chk=loop1.cluster34.chk
%nprocshared=48
%mem=10GB
%nosave
#b3lyp/svp scf=(tight,noincore) Test 
#IOP(5/87=12) Density=Current Pop=(MK,readradii) iop(6/33=2) iop(6/42=6)

loop1.cluster34 

   0  1 
C         79.11630       82.08207       85.98594
C         80.45485       82.66234       86.29787
O         80.56086       83.86628       86.43748
H         78.37165       82.88619       85.80499
H         79.18744       81.43955       85.08391
H         78.79191       81.47216       86.85409
N         81.53295       81.84214       86.41333
C         82.88189       82.29526       86.74685
C         83.86058       82.09441       85.59557
O         85.02839       82.42600       85.74623
C         83.37572       81.56898       88.01759
C         83.46816       80.07288       87.87738
O         84.55352       79.52371       87.96903
O         82.35675       79.32786       87.71369
H         81.38349       80.84193       86.22865
H         82.89128       83.37233       86.97261
H         82.69708       81.79378       88.86663
H         84.38403       81.96092       88.27539
N         83.45208       81.55376       84.41409
C         84.37257       81.22540       83.33512
C         84.46044       82.39408       82.38628
O         83.41929       82.78116       81.88094
C         83.80282       80.02243       82.54960
C         83.49905       78.79063       83.41571
C         84.74171       78.21483       84.10229
C         84.44685       76.87407       84.79547
N         83.50947       77.00489       85.91048
H         82.46302       81.30221       84.29080
H         85.35823       80.94566       83.75101
H         84.50208       79.74772       81.73143
H         82.83442       80.31773       82.08217
H         83.06538       78.01942       82.74445
H         82.73086       79.04638       84.17458
H         85.15299       78.93671       84.84164
H         85.51359       78.03091       83.32470
H         85.40614       76.47075       85.18589
H         84.04276       76.15348       84.05217
H         83.37444       76.07150       86.35930
H         83.91698       77.64412       86.62056
H         82.57732       77.35618       85.59650
N         85.61299       83.05466       82.07452
C         86.96150       82.78119       82.56738
C         87.80470       84.02724       82.28802
O         88.54921       84.04955       81.31605
C         87.55410       81.50725       81.91915
C         89.00321       81.31491       82.29864
O         89.82647       81.03409       81.44198
O         89.40939       81.52652       83.56623
H         85.50956       83.86060       81.44745
H         86.95836       82.63470       83.66782
H         87.47372       81.54909       80.81002
H         86.98474       80.62204       82.25991
N         87.66823       85.15859       83.04118
C         86.78897       85.21278       84.20729
C         86.53579       86.62755       84.68616
O         87.27936       87.51745       84.30706
H         88.17609       86.00238       82.74024
H         87.19453       84.59767       85.04124
H         85.85108       84.78369       83.90114
N         85.50579       86.95512       85.52556
C         84.40390       86.08370       85.97631
C         83.53217       86.82111       87.01866
O         83.85949       87.93578       87.41708
C         83.48304       85.68063       84.77599
C         83.11622       86.86596       83.93441
O         83.06899       86.75810       82.72191
O         83.10668       88.09059       84.48254
H         85.47617       87.94810       85.80745
H         84.79721       85.16629       86.46863
H         82.56553       85.16694       85.11110
H         83.88594       84.90649       84.11053
N         82.38540       86.26256       87.49429
C         81.49799       86.93060       88.42024
C         80.41671       87.77734       87.75932
O         79.69045       88.42357       88.49406
H         82.12893       85.32540       87.19626
H         82.09231       87.54199       89.13333
H         80.97509       86.16329       89.03286
N         80.23249       87.82305       86.39644
C         79.17076       88.64369       85.79028
C         78.25380       87.81370       84.91829
O         78.73031       87.02442       84.12348
C         79.74835       89.80850       84.95278
C         78.66565       90.82419       84.56826
O         80.32314       89.34379       83.76438
H         80.84582       87.27641       85.77785
H         78.56692       89.12998       86.58165
H         80.48781       90.36049       85.57954
H         81.29065       89.29366       83.91191
H         77.90718       90.36617       83.89730
H         78.15770       91.21604       85.47473
H         79.13312       91.67546       84.03078
N         76.90818       88.02124       84.96753
C         75.98720       87.38523       84.03529
C         75.12245       88.44742       83.36067
O         74.36240       89.13405       84.02486
C         75.20246       86.25421       84.74424
C         74.15726       85.56859       83.83156
C         74.54980       86.69999       86.06069
C         74.75896       84.99319       82.54772
H         76.53033       88.68710       85.65416
H         76.56447       86.87361       83.23781
H         75.95674       85.48431       85.02440
H         73.33699       86.27184       83.56545
H         73.71594       84.72363       84.40157
H         74.07536       85.82608       86.55353
H         75.31972       87.08011       86.76533
H         73.78431       87.48350       85.89608
H         75.08481       85.80166       81.86684
H         75.63022       84.34702       82.78382
H         73.99608       84.39065       82.01293
N         75.24749       88.64450       82.01592
C         74.49064       89.63960       81.25038
C         73.81801       89.02886       80.00527
O         73.01194       89.69912       79.37296
C         75.51749       90.71579       80.82420
C         74.92147       91.92078       80.09360
O         76.49639       90.11306       80.01325
H         75.97965       88.11377       81.52944
H         73.70543       90.09860       81.89304
H         75.98763       91.08670       81.76528
H         77.26322       90.73873       79.96144
H         74.14631       92.41017       80.71764
H         75.73310       92.65379       79.89782
H         74.49405       91.62918       79.11371
N         74.17452       87.79085       79.55488
C         73.77704       87.19854       78.29012
C         74.39542       87.90115       77.09558
O         74.62281       89.10339       77.11679
C         72.26921       86.87861       78.12904
C         71.74996       86.06606       79.32389
O         72.05777       86.15392       76.93980
H         74.83988       87.23155       80.09115
H         74.27677       86.20388       78.29350
H         71.66381       87.80733       78.05112
H         72.53657       85.28654       77.01708
H         71.64494       86.71936       80.21469
H         70.75999       85.62311       79.08566
H         72.45132       85.23801       79.56768
N         74.71571       87.14555       76.01006
C         75.29095       87.64625       74.78097
C         76.67035       87.12268       74.34024
O         77.24316       87.84164       73.53106
C         74.30851       87.38704       73.60555
C         73.45597       88.60053       73.26311
C         72.30783       88.82738       74.24112
C         71.64727       90.17471       73.94130
N         70.35009       90.27770       74.60033
H         74.46127       86.16956       76.04753
H         75.46213       88.74245       74.87716
H         73.68101       86.49329       73.78362
H         74.88054       87.17370       72.67631
H         72.99772       88.43684       72.26141
H         74.12541       89.48420       73.18194
H         72.63343       88.82542       75.29858
H         71.58772       87.99197       74.09425
H         71.49478       90.28908       72.84611
H         72.32421       90.99181       74.28592
H         69.90856       91.18642       74.33291
H         69.73363       89.49960       74.26879
H         70.45853       90.22898       75.63852
N         77.28200       85.92436       74.62743
C         76.96785       84.84449       75.56068
C         75.59234       84.22694       75.43559
O         74.99523       83.88712       76.45043
C         77.40170       85.22015       76.98740
C         78.86647       85.69017       76.98482
C         79.30875       85.98329       78.37023
O         80.08962       85.10432       79.01981
O         78.93065       86.99872       78.92903
H         78.16402       85.76562       74.11252
H         77.64686       84.00677       75.27833
H         77.32705       84.31525       77.63550
H         76.75133       86.01250       77.40956
H         79.01453       86.60441       76.36748
H         79.50621       84.88541       76.56052
N         74.99780       84.10632       74.21695
C         73.64495       83.60472       74.05569
H         72.98197       84.42482       73.71722
H         73.62994       82.81120       73.28376
H         73.22031       83.20115       74.99884
H         75.49771       84.43656       73.37892
Ca        82.09915       84.93249       80.89785
O         82.51753       86.95372       78.98080
H         81.65927       87.44076       79.02279
H         83.20665       87.65345       79.09652
O         82.76989       83.07124       78.84847
H         82.91086       82.09623       78.94236
H         82.75346       83.23570       77.87289
O         80.39353       82.73907       81.07791
H         80.56962       82.27618       81.93523
H         79.93016       82.07227       80.51511
O         84.63775       85.41071       79.85673
H         85.27624       85.90567       80.42893
H         85.11577       85.25419       79.00612
O         80.49851       84.59288       83.22159
H         80.42074       84.74969       84.19065
H         79.64192       84.92201       82.85320
O         80.35681       87.04230       81.42153
H         80.31907       87.33035       82.36178
H         80.14041       87.85880       80.91150

Ca 1.70



