%chk=loop4.cluster3.chk
%nprocshared=48
%mem=10GB
%nosave
#b3lyp/svp scf=(tight,noincore) Test 
#IOP(5/87=12) Density=Current Pop=(MK,readradii) iop(6/33=2) iop(6/42=6)

loop4.cluster3 

   -3  1 
C         53.91554       26.37316       39.26640
C         54.73624       25.69773       40.32594
O         55.33257       26.37679       41.15093
H         53.08945       26.94935       39.73055
H         54.56137       27.05607       38.67574
H         53.47596       25.62977       38.56593
N         54.82320       24.33872       40.35167
C         55.63410       23.57344       41.29306
C         55.15957       23.75280       42.74028
O         55.95772       23.74343       43.66337
C         57.13428       23.89343       41.14291
C         57.56613       24.26709       39.74784
O         58.10352       25.34805       39.57949
O         57.41125       23.46210       38.68275
H         54.29025       23.80224       39.64776
H         55.48455       22.50499       41.02051
H         57.73143       23.04376       41.53632
H         57.36991       24.78420       41.76566
N         53.84106       23.98446       42.96994
C         53.26260       24.25826       44.28737
C         52.98300       22.94186       44.98750
O         52.56539       22.01240       44.31625
C         51.97152       25.09974       44.04575
C         52.41823       26.54646       43.70521
C         50.96746       25.05124       45.20852
C         51.30831       27.40872       43.12272
H         53.21591       24.01551       42.15540
H         53.96765       24.87179       44.88225
H         51.42282       24.66458       43.18148
H         53.21868       26.51447       42.93513
H         52.84677       27.03441       44.61086
H         50.61193       24.00548       45.34390
H         51.41275       25.41441       46.15156
H         50.06534       25.64994       44.97678
H         50.48919       27.56279       43.85083
H         51.72755       28.40024       42.84922
H         50.91376       26.92701       42.20310
N         53.17067       22.74859       46.33205
C         53.54722       23.76549       47.31851
C         54.93958       23.54483       47.87537
O         55.59380       24.51500       48.22870
C         52.53625       23.82235       48.50506
C         52.34647       22.56585       49.33662
O         52.86495       21.50666       49.03117
O         51.58192       22.62027       50.44221
H         52.99413       21.79581       46.67643
H         53.53188       24.79140       46.89995
H         51.53505       24.12396       48.13544
H         52.88484       24.61780       49.20211
N         55.41038       22.28119       48.08615
C         56.63344       22.01526       48.81457
C         56.53091       22.52488       50.23220
O         55.43109       22.63322       50.76330
H         54.87268       21.47343       47.75968
H         57.49681       22.47446       48.28717
H         56.79012       20.91656       48.85574
N         57.65598       22.87208       50.91210
C         57.60184       23.49896       52.22798
C         57.17875       24.96737       52.15780
O         56.91476       25.54699       53.20110
C         58.93361       23.33422       53.01575
C         60.23078       23.47812       52.24599
O         61.23124       22.60674       52.47018
O         60.36688       24.31808       51.37805
H         58.56430       22.74612       50.44235
H         56.82365       22.98488       52.83842
H         58.95917       22.30509       53.43052
H         58.93607       24.01128       53.89782
N         57.11405       25.64235       50.97081
C         56.85558       27.07552       50.90716
C         58.12448       27.89238       51.10229
O         58.06967       29.10752       50.98249
H         57.40072       25.17329       50.10188
H         56.08533       27.37535       51.65005
H         56.44246       27.30267       49.90038
N         59.31336       27.27550       51.37304
C         60.59829       27.94150       51.54329
C         60.94758       28.76674       50.33008
O         61.59130       29.80110       50.46965
C         60.62862       28.73328       52.86365
C         60.46521       27.78631       54.06682
C         60.25958       28.51708       55.36799
N         59.95219       27.81972       56.48465
O         60.33260       29.73679       55.41662
H         59.32319       26.26735       51.45225
H         61.38538       27.15678       51.61469
H         59.80019       29.47265       52.84858
H         61.59049       29.28079       52.97661
H         61.35383       27.11783       54.14776
H         59.56911       27.15171       53.91110
H         59.86085       26.79339       56.45077
H         59.77462       28.31057       57.37288
N         60.53583       28.38053       49.08868
C         60.82654       29.18554       47.92222
C         62.26369       28.96522       47.50674
O         62.65516       27.84985       47.19388
C         59.81193       28.96496       46.77288
C         58.39426       29.32572       47.26058
C         60.18123       29.85884       45.57267
H         59.95960       27.53079       48.97946
H         60.68193       30.25538       48.19911
H         59.81340       27.90631       46.43360
H         58.36601       30.36169       47.66665
H         57.66204       29.25629       46.42983
H         58.06555       28.63040       48.06038
H         59.42092       29.77658       44.76895
H         60.26104       30.92473       45.88126
H         61.15711       29.54522       45.14425
N         63.08429       30.04188       47.44245
C         64.46483       30.01064       46.99442
C         64.48920       30.50775       45.56402
O         63.78533       31.44843       45.22861
C         65.28201       30.92809       47.92209
C         66.66448       31.24546       47.40702
N         67.64068       30.31126       47.38600
O         66.90528       32.37742       47.01394
H         62.67529       30.96779       47.63603
H         64.89077       28.98119       47.01757
H         65.33860       30.49033       48.94344
H         64.73635       31.89217       47.99861
H         67.47061       29.36064       47.74201
H         68.58006       30.55870       47.03849
N         65.27272       29.86717       44.65656
C         65.22828       30.16063       43.23310
C         65.54800       28.88939       42.49425
O         66.62647       28.34547       42.68799
C         66.20146       31.30209       42.86045
C         66.12529       31.66280       41.38414
C         65.54850       32.88145       40.98846
C         66.62409       30.79236       40.39282
C         65.45175       33.21235       39.63262
C         66.52505       31.12607       39.03988
C         65.93299       32.33558       38.65538
O         65.82192       32.66280       37.35178
H         65.86660       29.09139       44.98406
H         64.20213       30.49064       42.95425
H         67.25014       31.05020       43.13041
H         65.90618       32.18384       43.46930
H         65.16055       33.56900       41.72884
H         67.09400       29.85736       40.65909
H         64.99619       34.14969       39.34071
H         66.90830       30.44330       38.29116
H         66.12748       32.06978       36.65025
N         64.65232       28.37194       41.60578
C         64.95022       27.18787       40.81580
C         65.09728       27.58457       39.34142
O         66.21913       27.49251       38.86407
C         63.97066       26.04301       41.15347
C         64.29562       24.68809       40.49561
C         65.55571       24.05868       41.02731
O         65.47736       22.96259       41.80639
O         66.64985       24.51700       40.74133
H         63.75873       28.85891       41.46853
H         65.94339       26.80439       41.12216
H         62.93679       26.32281       40.90349
H         63.96540       25.88750       42.25532
H         64.34839       24.76255       39.38838
H         63.45390       24.00891       40.74941
N         64.09081       28.04872       38.52618
C         62.66259       28.09140       38.83868
C         61.96967       29.32201       38.27076
O         62.58873       30.11578       37.57029
C         61.98962       26.80189       38.29188
C         62.15896       26.59623       36.77680
C         61.62437       25.25280       36.34492
O         60.38120       25.16859       35.81440
O         62.42070       24.35188       36.12480
H         64.35878       28.26603       37.55284
H         62.49907       28.14357       39.92343
H         60.91003       26.78924       38.55008
H         62.45418       25.93481       38.79020
H         63.23993       26.62853       36.52309
H         61.65623       27.40590       36.20786
N         60.65102       29.53296       38.54527
C         59.89904       30.63459       37.98654
H         58.87193       30.63549       38.41260
H         60.38338       31.60329       38.22813
H         59.81561       30.51549       36.88480
H         60.15829       28.88107       39.17529
Ca        58.55634       24.33386       36.91026
O         57.67862       25.54093       34.31316
H         58.19584       25.43941       33.47593
H         57.80356       26.49026       34.56147
O         59.88344       22.51747       38.24253
H         60.84377       22.43367       38.03131
H         59.57168       21.61654       38.50307
O         57.46478       21.98469       35.63749
H         56.62888       21.48023       35.47628
H         58.19021       21.32627       35.49462
O         57.75859       27.02563       37.09593
H         57.68165       27.87376       36.59409
H         58.00084       27.30155       38.01332

Ca 1.70



