%chk=loop1.cluster108.chk
%nprocshared=48
%mem=10GB
%nosave
#b3lyp/svp scf=(tight,noincore) Test 
#IOP(5/87=12) Density=Current Pop=(MK,readradii) iop(6/33=2) iop(6/42=6)

loop1.cluster108 

   0  1 
C         42.89936       52.61539       11.40939
C         43.07030       52.42013        9.93384
O         42.07600       52.31462        9.22943
H         41.82187       52.71730       11.66497
H         43.33242       51.76595       11.97445
H         43.41110       53.55633       11.70352
N         44.32069       52.43599        9.38090
C         44.54632       52.42819        7.93722
C         43.80413       53.61702        7.32872
O         44.10159       54.73232        7.71804
C         44.18356       51.06366        7.29633
C         45.05438       49.91394        7.71475
O         46.11519       50.10176        8.52269
O         44.81838       48.79758        7.28062
H         45.13588       52.55499       10.00226
H         45.63028       52.59239        7.73721
H         44.30463       51.14588        6.19260
H         43.12923       50.80757        7.52486
N         42.79623       53.44268        6.41596
C         42.02525       54.49568        5.76187
C         42.88481       55.27120        4.77850
O         42.75140       55.07084        3.57890
C         41.27370       55.39174        6.77332
C         40.12334       56.17940        6.12473
C         39.45683       57.05951        7.19138
C         38.17832       57.77851        6.73567
N         38.41635       58.75965        5.67702
H         42.52017       52.48753        6.16340
H         41.25228       53.95343        5.17029
H         41.96024       56.09057        7.29219
H         40.83640       54.74489        7.56242
H         39.38551       55.44691        5.72798
H         40.49495       56.80539        5.28500
H         40.19229       57.80912        7.55751
H         39.16885       56.40837        8.04494
H         37.77233       58.30936        7.62508
H         37.41813       57.03753        6.40275
H         37.53772       59.30919        5.53175
H         39.17770       59.42014        5.95557
H         38.66105       58.28196        4.78078
N         43.75692       56.21381        5.22964
C         44.61615       57.01666        4.37684
C         46.05495       57.07070        4.93401
O         46.94295       57.50522        4.22591
C         43.96839       58.40757        4.35114
C         44.50674       59.42977        3.39188
O         44.08468       60.57041        3.49447
O         45.06412       59.05881        2.21801
H         43.71892       56.46117        6.21624
H         44.62716       56.58944        3.34719
H         43.99062       58.81896        5.38478
H         42.89298       58.28207        4.08424
N         46.35197       56.70233        6.21882
C         47.68874       56.72861        6.77795
C         48.43691       55.50488        6.34858
O         47.89235       54.41257        6.44504
H         45.61941       56.41379        6.86373
H         47.59648       56.65723        7.88073
H         48.21112       57.68414        6.54588
N         49.69093       55.61021        5.83945
C         50.36530       54.47183        5.23274
C         51.85430       54.44817        5.52991
O         52.41486       55.44403        5.96744
C         50.06576       54.48562        3.72482
C         50.28820       55.84542        3.12010
O         49.35704       56.43001        2.58963
O         51.49085       56.44431        3.20812
H         50.11364       56.54687        5.75294
H         49.96593       53.52068        5.65328
H         48.98972       54.23253        3.58577
H         50.67078       53.72247        3.19724
N         52.55082       53.28607        5.35206
C         53.96447       53.14418        5.67123
C         54.26833       53.15901        7.16267
O         55.42703       52.99939        7.52101
H         52.05499       52.45887        4.98524
H         54.54579       53.92490        5.13536
H         54.30485       52.15258        5.30180
N         53.28309       53.33998        8.09026
C         53.50608       53.32381        9.52889
C         53.53012       54.75643       10.03241
O         52.82431       55.60084        9.49699
C         52.42434       52.42197       10.18334
C         52.57351       52.28059       11.70554
O         51.14405       52.91422        9.86133
H         52.32315       53.51881        7.77806
H         54.50076       52.87779        9.76109
H         52.55489       51.40967        9.73684
H         50.47089       52.40646       10.38394
H         53.61225       52.01880       11.99139
H         52.26997       53.21188       12.21184
H         51.89832       51.47417       12.06664
N         54.37247       55.09932       11.04836
C         54.56759       56.48079       11.51228
C         56.03755       56.85356       11.68630
O         56.31611       57.99155       12.04132
C         53.81753       56.74999       12.83982
C         54.45486       56.12120       14.11197
C         52.32479       56.42611       12.69568
C         54.80536       54.63907       14.08957
H         54.87085       54.33153       11.50834
H         54.13700       57.17724       10.75748
H         53.84914       57.84926       13.01970
H         53.75884       56.28886       14.94264
H         55.39407       56.65923       14.35723
H         52.15584       55.35214       12.52478
H         51.77602       56.73071       13.61032
H         51.89667       56.99278       11.83926
H         55.68925       54.46683       13.44414
H         55.11529       54.32755       15.10813
H         53.94405       54.02197       13.77011
N         57.03345       55.94813       11.47157
C         58.43394       56.27736       11.65419
C         58.81988       56.34565       13.12043
O         58.49297       55.45111       13.89192
C         59.35313       55.23469       10.98339
C         59.04902       55.08055        9.48972
O         60.68634       55.66126       11.12788
H         56.80758       55.01006       11.12818
H         58.64949       57.24131       11.13726
H         59.20428       54.25158       11.49049
H         61.25564       54.85020       11.15325
H         59.75727       54.35290        9.04483
H         58.02359       54.69461        9.32039
H         59.15318       56.05633        8.96941
N         59.71225       57.29172       13.50127
C         60.41825       57.28823       14.77866
C         59.52563       57.58242       15.97402
O         59.92231       57.29901       17.09285
C         61.54590       58.34582       14.68624
C         62.50928       58.37596       15.86720
O         60.97711       59.61764       14.56149
H         59.99997       57.96558       12.77757
H         60.87720       56.28098       14.90814
H         62.16800       58.11635       13.78895
H         60.74916       59.77886       13.61066
H         61.99064       58.67008       16.80211
H         62.99509       57.38749       15.99374
H         63.29306       59.13811       15.66420
N         58.34621       58.24371       15.80721
C         57.58433       58.74036       16.94692
C         56.11201       58.86009       16.60635
O         55.76123       58.97911       15.44450
C         58.16560       60.09683       17.41228
C         58.13305       61.18298       16.30709
C         58.73783       62.52514       16.77052
C         60.27152       62.52616       16.95671
N         60.98231       62.55021       15.67635
H         58.07399       58.54240       14.86434
H         57.66334       58.00858       17.78317
H         59.21073       59.92401       17.73814
H         57.59158       60.46019       18.29465
H         57.06807       61.36559       16.04819
H         58.64285       60.83527       15.38621
H         58.25189       62.79335       17.73164
H         58.48763       63.31867       16.03309
H         60.60068       61.66285       17.57216
H         60.55749       63.44793       17.50669
H         60.65317       61.79505       15.05223
H         60.80904       63.45653       15.18604
H         62.01011       62.44360       15.84096
N         55.19125       58.81977       17.61061
C         53.75863       58.97345       17.37024
C         52.98693       57.66598       17.56619
O         52.41158       57.21957       16.58477
C         53.18979       60.14729       18.19194
C         53.69836       61.49685       17.66659
C         53.13933       62.62667       18.48160
O         52.44644       63.48145       17.95306
O         53.40607       62.70431       19.79948
H         55.53002       58.68137       18.56831
H         53.58090       59.23635       16.30234
H         53.46092       60.04990       19.26063
H         52.08133       60.14379       18.11321
H         53.38148       61.61414       16.60548
H         54.80725       61.53829       17.70927
N         52.83286       56.99157       18.74422
C         53.34616       57.38168       20.03729
H         54.10727       58.16523       20.01100
H         52.49313       57.73270       20.65342
H         53.79782       56.49768       20.53261
H         52.23672       56.14932       18.72879
Ca        47.21521       58.43281        1.83784
O         47.66447       60.82631        0.39260
H         47.04829       61.54241        0.09885
H         48.54742       61.26582        0.47528
O         50.08034       59.31096        2.45575
H         50.59088       59.47651        3.28725
H         50.55700       58.56328        2.01718
O         48.67353       58.04346       -0.71459
H         49.24779       57.31128       -1.05042
H         48.69644       58.73115       -1.42654
O         45.72641       57.87233       -0.46695
H         46.11465       57.88977       -1.37661
H         45.16624       57.05733       -0.44436
O         47.57989       60.48280        3.93109
H         47.37019       60.44366        4.89725
H         46.75146       60.82214        3.51115

Ca 1.70



