%chk=loop3.cluster83.chk
%nprocshared=48
%mem=10GB
%nosave
#b3lyp/svp scf=(tight,noincore) Test 
#IOP(5/87=12) Density=Current Pop=(MK,readradii) iop(6/33=2) iop(6/42=6)

loop3.cluster83 

   0  1 
C        104.83679       44.84020       11.85044
C        106.15977       44.58766       11.19218
O        106.28103       43.67634       10.39145
H        104.06421       44.12938       11.49066
H        104.93872       44.76235       12.95147
H        104.50750       45.87211       11.59320
N        107.19157       45.42976       11.43414
C        108.42073       45.38618       10.65563
C        109.37030       44.23104       10.94192
O        109.41783       43.69962       12.04190
C        109.22571       46.69998       10.78890
C        109.63967       47.02517       12.20619
O        108.72193       47.39108       13.12217
O        110.81899       47.01006       12.51634
H        107.01596       46.21761       12.06844
H        108.12295       45.31839        9.58349
H        108.63546       47.54823       10.38608
H        110.13898       46.60931       10.15784
N        110.28494       43.94230        9.97523
C        111.49326       43.13703       10.13545
C        111.22647       41.70235       10.52365
O        112.06066       41.10961       11.19619
C        112.24303       43.11198        8.78237
C        112.72501       44.48162        8.25718
C        113.99162       44.97912        8.96144
C        114.68640       46.09184        8.15616
N        113.87278       47.30096        8.03373
H        110.13756       44.39772        9.06362
H        112.14970       43.59571       10.90736
H        111.53735       42.69373        8.03043
H        113.12027       42.42828        8.82003
H        111.93671       45.26354        8.28756
H        112.98152       44.31989        7.19055
H        114.71863       44.14037        9.01065
H        113.76986       45.30769       10.00071
H        114.93392       45.70961        7.13856
H        115.64321       46.34235        8.66190
H        114.45145       48.04692        7.58366
H        113.04015       47.12499        7.42683
H        113.56870       47.62924        8.97810
N        110.14376       41.04191       10.03479
C        109.94779       39.61399       10.24385
C        109.25280       39.02821        9.02020
O        108.28756       38.28932        9.14928
C        109.20237       39.40163       11.57688
C        107.82209       39.99162       11.58085
O        107.30643       40.54148       10.46067
O        107.14583       39.91563       12.59177
H        109.47370       41.55482        9.44271
H        110.94002       39.11265       10.31271
H        109.78555       39.88152       12.39194
H        109.11211       38.31747       11.80080
N        109.69775       39.36805        7.77810
C        109.02515       38.98342        6.54791
C        107.79695       39.85393        6.27534
O        107.19713       40.33235        7.22415
H        110.53437       39.96686        7.69829
H        108.80435       37.89604        6.52483
H        109.76401       39.19640        5.75371
N        107.40972       40.21691        5.01046
C        108.04768       39.75047        3.78448
C        106.98923       39.41552        2.73323
O        106.24746       40.31376        2.35834
C        108.96979       40.85855        3.23126
C        109.73281       40.36513        2.02396
N        109.54296       40.92647        0.80750
O        110.52078       39.43885        2.14661
H        106.64955       40.91130        4.92054
H        108.68150       38.87893        3.99326
H        109.70709       41.16595        4.00517
H        108.36418       41.75675        2.97601
H        108.87271       41.69845        0.68181
H        110.05731       40.57272       -0.01301
N        106.87795       38.18941        2.13833
C        107.66247       37.01819        2.48513
C        107.11234       36.35077        3.71849
O        107.10888       36.95886        4.77745
H        106.20582       38.09115        1.36155
H        108.74107       37.25696        2.57667
H        107.58716       36.29630        1.64567
N        106.60172       35.08617        3.64352
C        106.06302       34.37185        4.79111
C        106.76801       33.03414        4.96670
O        107.21425       32.44414        3.98794
C        104.53899       34.15098        4.64798
C        103.74927       35.44416        4.67406
C        103.03976       35.80319        5.83211
C        103.70291       36.29297        3.55484
C        102.31436       36.99486        5.88299
C        102.96405       37.48256        3.60187
C        102.27304       37.83914        4.77022
O        101.57931       38.99416        4.83793
H        106.58754       34.60859        2.72862
H        106.21112       34.95426        5.72843
H        104.21934       33.54242        5.51745
H        104.28347       33.56473        3.73827
H        103.06365       35.16632        6.69993
H        104.22640       36.02915        2.64557
H        101.79169       37.26727        6.79230
H        102.93037       38.12787        2.73337
H        101.55643       39.62003        4.10029
N        106.81492       32.45331        6.19848
C        107.37238       31.13400        6.47631
C        106.23913       30.12858        6.72932
O        106.50176       28.95364        6.91988
C        108.35757       31.25598        7.68155
C        107.59483       31.33553        9.03576
C        109.39113       30.12001        7.68339
C        108.42664       31.88956       10.18768
H        106.36681       32.95279        6.97097
H        107.93451       30.78987        5.57884
H        108.92858       32.19862        7.52238
H        107.19419       30.33473        9.30986
H        106.73102       32.00987        8.93753
H        109.93997       30.12013        6.71672
H        110.14122       30.26971        8.48632
H        108.91088       29.13006        7.81924
H        108.76495       32.91849        9.94014
H        107.79328       31.94736       11.09988
H        109.30163       31.24850       10.40650
N        104.93782       30.55226        6.69511
C        103.78856       29.66607        6.80490
C        103.49808       29.18364        8.22263
O        102.62233       28.33855        8.37128
C        102.56068       30.41752        6.24489
O        102.32750       31.59474        6.97950
H        104.73997       31.53178        6.48571
H        103.96561       28.78609        6.14858
H        101.65175       29.78408        6.26903
H        102.78878       30.66889        5.17969
H        101.99022       32.27680        6.33993
N        104.13235       29.69666        9.31873
C        103.78174       29.29258       10.68144
C        104.04966       30.40603       11.68008
O        105.14221       30.95901       11.69000
C        104.51624       28.01269       11.08409
H        104.82081       30.45074        9.18740
H        102.69403       29.06511       10.73168
H        105.61669       28.15402       11.06364
H        104.20998       27.72277       12.11415
H        104.23959       27.18067       10.40259
N        103.06881       30.77668       12.56486
C        103.18314       31.86311       13.53864
C        103.21077       33.23789       12.89568
O        103.36795       34.21986       13.60812
C        104.35740       31.65031       14.50597
H        102.18033       30.25329       12.55397
H        102.26511       31.86364       14.16563
H        104.22423       30.68897       15.04430
H        105.33983       31.65231       13.99538
H        104.37087       32.46359       15.26399
N        103.01345       33.39445       11.55741
C        102.98244       34.70474       10.93679
C        101.64396       35.35145       11.23680
O        101.60903       36.40941       11.84838
C        103.21352       34.58215        9.41631
C        104.47303       33.77663        9.02722
C        105.78783       34.40453        9.40627
O        106.12327       34.55865       10.69700
O        106.60444       34.67798        8.54411
H        102.83746       32.57381       10.96546
H        103.80775       35.32141       11.33848
H        103.25742       35.59703        8.96386
H        102.35298       34.04263        8.96757
H        104.43942       33.63347        7.93043
H        104.44104       32.76609        9.47670
N        100.48856       34.74117       10.84138
C         99.17233       35.29633       11.08153
H         98.56080       34.56284       11.64829
H         99.20391       36.24599       11.65490
H         98.68068       35.48965       10.10519
H        100.54039       33.84043       10.34284
Ca       105.66160       39.46343        9.33920
O        102.92477       38.88764        9.93197
H        102.66839       38.17762       10.56679
H        102.51813       39.70563       10.30983
O        105.47106       37.72328       11.33744
H        105.50897       36.74280       11.38303
H        105.00273       37.99503       12.16318
O        104.56960       41.84667        8.47043
H        104.97271       42.03689        9.34912
H        103.83523       42.50072        8.38607
O        105.58842       37.08953        7.58897
H        105.58249       37.27279        6.62077
H        106.54368       36.93342        7.78457
O        103.98572       39.55247        6.86250
H        104.26389       38.96163        6.12310
H        103.96354       40.44573        6.44142
O        104.22747       40.99272       11.48924
H        105.14712       40.79948       11.77519
H        103.77624       41.28466       12.31595

Ca 1.70



