%chk=loop1.cluster143.chk
%nprocshared=48
%mem=10GB
%nosave
#b3lyp/svp scf=(tight,noincore) Test 
#IOP(5/87=12) Density=Current Pop=(MK,readradii) iop(6/33=2) iop(6/42=6)

loop1.cluster143 

   0  1 
C         75.94131       62.08634       34.05856
C         76.42678       62.66429       32.77199
O         76.44521       61.96676       31.76633
H         74.87695       61.79365       33.98291
H         76.56819       61.19858       34.28494
H         76.06805       62.81238       34.89082
N         76.88627       63.94110       32.73870
C         77.60059       64.49801       31.61265
C         76.76965       64.49777       30.34222
O         77.12704       63.89289       29.34461
C         78.96922       63.81067       31.53366
C         79.90379       64.65507       30.76472
O         80.60580       64.17163       29.89283
O         80.00253       65.96026       31.08586
H         76.81460       64.52446       33.58818
H         77.78554       65.56663       31.86822
H         78.91940       62.76564       31.15931
H         79.38539       63.79333       32.56428
N         75.62109       65.21148       30.35860
C         74.68037       65.33730       29.24678
C         75.29303       65.91760       27.98403
O         74.78838       65.61433       26.90656
C         73.54143       66.23082       29.77756
C         72.45128       66.66141       28.79953
C         71.28712       67.36500       29.54278
C         71.66868       68.50881       30.51508
N         72.36583       69.59712       29.84517
H         75.39656       65.69420       31.24108
H         74.27485       64.33236       28.99185
H         74.01278       67.15893       30.16719
H         73.07209       65.68430       30.62474
H         72.03780       65.77252       28.27712
H         72.89703       67.33575       28.03592
H         70.76605       66.59948       30.15586
H         70.57146       67.74612       28.78468
H         72.30829       68.11836       31.33808
H         70.74564       68.90695       30.98850
H         71.77202       70.01243       29.09191
H         72.62508       70.33488       30.54017
H         73.23849       69.20924       29.44684
N         76.34649       66.78067       28.01502
C         76.89102       67.38916       26.80715
C         78.32792       67.01122       26.56329
O         78.91500       67.58111       25.66540
C         76.76769       68.91933       26.88362
C         75.34344       69.34502       26.96713
O         74.90333       69.93515       28.08490
O         74.58831       69.18551       26.02057
H         76.76242       67.03722       28.92733
H         76.34954       67.06535       25.89092
H         77.20673       69.41283       25.98715
H         77.30729       69.27915       27.78017
N         78.96332       66.02654       27.26581
C         80.32290       65.67192       26.91083
C         81.21981       66.88615       27.17442
O         82.24000       66.99279       26.23581
H         78.48421       65.50385       28.00638
H         80.33311       65.38933       25.83652
H         80.67232       64.78229       27.47934
N         81.71685       66.84499       28.54260
C         82.59556       67.95018       28.96523
C         83.42170       67.50636       30.16136
O         84.36618       68.19308       30.52611
C         81.79052       69.19019       29.43797
C         80.86815       69.76767       28.41294
O         79.55199       69.86410       28.67605
O         81.30963       70.20276       27.36463
H         80.87818       66.82785       29.15404
H         83.29512       68.20111       28.13989
H         82.49664       69.98804       29.74935
H         81.18092       68.90987       30.32950
N         83.04408       66.42313       30.89250
C         83.62972       66.09607       32.15748
C         84.79814       65.18803       32.02671
O         84.89649       64.43051       31.06937
H         82.22559       65.88799       30.62728
H         82.89128       65.48984       32.73482
H         83.81405       66.99776       32.77883
N         85.58977       65.04964       33.11023
C         86.44815       63.90054       33.30324
C         87.71664       63.96104       32.48258
O         87.93369       64.90658       31.73419
C         86.71941       63.73772       34.83267
C         87.75835       64.74065       35.34527
O         85.52951       63.90419       35.56892
H         85.41203       65.67778       33.90854
H         85.87775       62.99240       33.00168
H         87.11188       62.72296       35.05368
H         84.81836       63.36611       35.13162
H         87.48713       65.78226       35.07846
H         87.85234       64.65430       36.44645
H         88.75138       64.51525       34.90924
N         88.64014       62.98317       32.65641
C         89.95194       62.97938       32.03380
C         90.28512       61.60876       31.45302
O         91.31354       61.49230       30.80308
C         90.98794       63.45603       33.09758
C         92.44415       63.61037       32.59232
C         90.99440       62.52497       34.32946
C         92.60682       64.48366       31.34698
H         88.43251       62.26361       33.35808
H         89.95895       63.71036       31.19489
H         90.65513       64.46693       33.42570
H         92.89157       62.61676       32.38545
H         93.03299       64.07989       33.41164
H         91.30842       61.50199       34.03244
H         91.68673       62.90757       35.10558
H         90.00049       62.45271       34.81136
H         92.18064       65.49559       31.50748
H         93.68976       64.58404       31.11949
H         92.12511       64.01417       30.46509
N         89.45216       60.52842       31.61509
C         89.73876       59.23841       31.01677
C         89.68593       58.13231       32.05302
O         88.63621       57.88687       32.63361
C         88.73705       58.95900       29.88512
C         88.78232       60.07846       28.83548
O         89.07368       57.73687       29.28362
H         88.56465       60.61213       32.12233
H         90.74942       59.24173       30.55521
H         87.70681       58.90103       30.31130
H         88.29585       57.47033       28.72891
H         88.13651       59.81708       27.97356
H         88.40948       61.03292       29.26664
H         89.82190       60.23113       28.47356
N         90.80905       57.41003       32.31326
C         90.83655       56.25142       33.19868
C         91.25024       56.60873       34.61076
O         91.12220       55.75526       35.47956
C         91.69043       55.10760       32.59326
C         93.11914       55.53846       32.21079
O         91.04182       54.61197       31.45185
H         91.68294       57.71838       31.87451
H         89.79973       55.86048       33.32717
H         91.75211       54.30039       33.36244
H         91.33095       53.66783       31.34465
H         93.11946       56.26306       31.37003
H         93.64819       55.98790       33.07657
H         93.69187       54.66166       31.84802
N         91.65411       57.86859       34.94867
C         91.64508       58.28530       36.34216
C         90.22640       58.66471       36.72730
O         89.35137       58.74022       35.87421
C         92.58968       59.48052       36.59643
C         94.07388       59.10254       36.47070
C         94.95543       60.28170       36.91336
C         96.45111       60.10248       36.60101
N         97.10587       59.08011       37.41969
H         91.71545       58.59675       34.22326
H         91.95947       57.44660       37.00157
H         92.42821       59.85782       37.62788
H         92.34468       60.31372       35.89872
H         94.27919       58.84146       35.41128
H         94.29949       58.22567       37.11544
H         94.81476       60.47898       38.00198
H         94.62227       61.18507       36.36077
H         96.94485       61.07728       36.80414
H         96.58476       59.87097       35.52092
H         96.90144       59.23473       38.43356
H         96.80875       58.12129       37.13085
H         98.14056       59.16389       37.28165
N         89.94921       58.94132       38.02751
C         88.66386       59.43900       38.49671
C         88.15750       58.52658       39.61324
O         88.94400       58.22809       40.50134
C         88.89822       60.85929       39.03958
C         89.31186       61.82546       37.91209
C         89.74871       63.14960       38.46340
O         88.90365       63.89019       39.20422
O         90.87779       63.55918       38.24203
H         90.70942       58.84915       38.71843
H         87.94909       59.52268       37.66372
H         89.69947       60.81332       39.81071
H         87.97028       61.24405       39.51609
H         88.45603       61.97281       37.21740
H         90.15800       61.40336       37.32919
N         86.88062       58.03564       39.69125
C         85.77780       58.35283       38.80192
H         84.96109       58.80797       39.40201
H         86.00557       59.06652       37.99848
H         85.39472       57.41842       38.34307
H         86.65950       57.40901       40.48124
Ca        81.35090       68.72613       25.02555
O         79.30224       68.17988       22.86544
H         78.83207       67.41937       23.28670
H         79.59883       67.81981       21.99420
O         79.17114       70.85316       24.30163
H         78.96678       71.45442       25.06083
H         79.06065       71.41947       23.49697
O         82.60508       67.30038       23.12773
H         82.35231       66.34674       23.20433
H         83.24238       67.34660       22.37426
O         83.83511       69.85626       25.12504
H         84.41577       69.48488       25.83505
H         84.44774       70.09715       24.38696
O         81.64548       70.31812       22.44013
H         81.12920       70.97359       21.90745
H         82.42474       70.09268       21.87295

Ca 1.70



