%chk=loop2.cluster29.chk
%nprocshared=48
%mem=10GB
%nosave
#b3lyp/svp scf=(tight,noincore) Test 
#IOP(5/87=12) Density=Current Pop=(MK,readradii) iop(6/33=2) iop(6/42=6)

loop2.cluster29 

   -2  1 
C         77.47071       51.91424       58.57515
C         77.25996       52.42297       57.17299
O         76.61299       51.75837       56.37676
H         78.19971       52.55417       59.12004
H         76.51984       51.90365       59.14428
H         77.90041       50.89080       58.54017
N         77.81657       53.60793       56.80499
C         77.82077       54.13438       55.44264
C         76.42776       54.37535       54.87821
O         75.66822       55.15211       55.44126
C         78.61161       55.45843       55.45027
C         78.70602       56.11551       54.10536
O         78.12645       57.31478       53.90585
O         79.31882       55.57852       53.19728
H         78.31532       54.14379       57.53185
H         78.35780       53.40773       54.79284
H         79.64042       55.27061       55.82875
H         78.10707       56.15611       56.15394
N         76.05690       53.75513       53.72022
C         74.78847       53.99126       53.04448
C         73.94887       52.72518       53.11735
O         74.51923       51.64528       53.04787
C         75.05717       54.37932       51.58265
H         76.70860       53.08178       53.28809
H         74.25833       54.84453       53.50005
H         75.67325       55.30332       51.54051
H         75.59842       53.56912       51.04840
H         74.10717       54.57761       51.04210
N         72.58499       52.73889       53.20840
C         71.77552       53.95409       53.15026
C         71.93142       54.84786       54.36708
O         72.41693       54.39824       55.39683
C         70.28408       53.62047       52.93354
C         69.64902       52.91017       54.09852
O         70.02783       51.66950       54.44353
O         68.75738       53.45515       54.72806
H         72.10803       51.82595       53.21236
H         72.10555       54.52214       52.25645
H         70.16538       52.99818       52.01998
H         69.73426       54.57039       52.76536
N         71.50398       56.14330       54.30543
C         71.59054       57.04919       55.43720
C         72.04160       58.44891       55.03996
O         72.28296       58.69356       53.86698
H         71.06214       56.48176       53.43741
H         72.32221       56.66926       56.18425
H         70.58480       57.09543       55.90119
N         72.21573       59.43458       55.97351
C         71.87487       59.27233       57.38062
C         73.09593       59.03841       58.24619
O         74.17713       59.53903       57.96617
C         70.98350       60.43206       57.86071
C         70.55425       60.31005       59.30912
N         69.92388       59.19901       59.76462
O         70.77945       61.23155       60.07894
H         72.59598       60.34481       55.66719
H         71.25631       58.36967       57.50474
H         70.07286       60.44537       57.22454
H         71.51951       61.39645       57.71824
H         69.73545       58.40014       59.14274
H         69.65005       59.12650       60.75569
N         72.97166       58.18535       59.29615
C         74.05458       57.81308       60.18659
C         73.66593       56.70015       61.16026
O         74.32175       56.57634       62.18173
H         72.03574       57.81480       59.46807
H         74.32685       58.72221       60.76797
H         74.94766       57.47348       59.62184
N         72.60232       55.86381       60.92059
C         72.13734       54.87726       61.88644
C         71.92278       53.52683       61.24317
O         72.05046       53.38067       60.03946
C         70.79701       55.35450       62.50006
C         71.01655       56.51636       63.46400
O         69.90275       55.72913       61.47904
H         72.06550       55.92745       60.05004
H         72.87997       54.72645       62.69669
H         70.35858       54.53343       63.11104
H         68.98529       55.51130       61.78718
H         71.71952       56.19736       64.26509
H         71.43280       57.40237       62.94350
H         70.05174       56.78712       63.94084
N         71.56379       52.48582       62.04600
C         71.22899       51.16398       61.54376
C         69.79276       50.81480       61.91749
O         69.17128       51.49952       62.71455
C         72.24765       50.10694       62.07253
C         73.65044       50.27375       61.43922
C         72.39904       50.15390       63.60756
C         73.67280       49.95831       59.94511
H         71.50307       52.64609       63.05893
H         71.23532       51.16506       60.43660
H         71.87893       49.09157       61.80722
H         74.34143       49.54679       61.91888
H         74.04795       51.29735       61.61714
H         73.06820       49.33467       63.94673
H         72.86434       51.10779       63.93956
H         71.42008       50.03226       64.11397
H         74.71709       49.98838       59.57275
H         73.27645       48.93850       59.78436
H         73.07911       50.68051       59.35457
N         69.19528       49.76235       61.29255
C         67.77678       49.43567       61.43098
C         67.54078       47.96828       61.13091
O         68.09317       47.44668       60.17789
C         66.92503       50.31548       60.49599
C         67.47709       50.39450       59.10396
O         68.05364       51.53883       58.69142
O         67.43755       49.42890       58.35885
H         69.72614       49.29721       60.54667
H         67.42258       49.64032       62.46599
H         66.93022       51.34360       60.91058
H         65.86340       49.97399       60.47605
N         66.65772       47.25897       61.88674
C         66.33637       45.85950       61.61873
C         67.56401       44.97889       61.83736
O         68.15844       45.05833       62.90262
C         65.22064       45.39703       62.57561
C         64.80981       43.95370       62.37396
C         65.34657       42.95713       63.20585
C         63.87370       43.59405       61.38584
C         64.95182       41.62571       63.06066
C         63.47142       42.25756       61.25341
C         64.00912       41.27628       62.09193
H         66.16405       47.74529       62.65041
H         65.93786       45.78173       60.58704
H         64.32295       46.04625       62.47921
H         65.59082       45.52607       63.61543
H         66.07462       43.21463       63.96403
H         63.44365       44.34551       60.73520
H         65.37225       40.86622       63.70668
H         62.73760       41.98117       60.50648
H         63.69453       40.24484       61.99363
N         67.97104       44.06687       60.89978
C         69.06250       43.13384       61.12962
C         70.41241       43.72952       60.73424
O         71.39911       43.00467       60.72328
C         68.66652       41.99079       60.18088
C         68.11340       42.74474       58.97865
C         67.28016       43.83371       59.64796
H         69.09094       42.73991       62.16956
H         69.46943       41.25734       59.95492
H         67.81138       41.44028       60.63830
H         68.97682       43.22083       58.46247
H         67.55095       42.13521       58.23942
H         67.23340       44.73411       58.99583
H         66.25959       43.46089       59.87395
N         70.51399       45.02594       60.32506
C         71.70949       45.57112       59.69555
C         72.89004       45.80037       60.62680
O         73.93761       46.18885       60.12796
C         71.36214       46.89676       58.99058
C         70.37113       46.68222       57.83496
C         70.09673       47.94867       57.08471
O         70.65314       49.11340       57.47366
O         69.37453       47.91997       56.10139
H         69.67456       45.61319       60.34182
H         72.04021       44.86006       58.90709
H         72.28336       47.32371       58.54450
H         70.95885       47.61892       59.73245
H         69.40608       46.27249       58.19873
H         70.81652       45.95639       57.12319
N         72.81617       45.59546       61.97288
C         73.94945       45.83766       62.84904
H         74.84032       46.22370       62.30729
H         73.66985       46.59030       63.61434
H         74.23895       44.89175       63.35072
H         71.94029       45.26636       62.40063
Ca        68.88930       50.75223       56.13684
O         70.87752       52.25327       57.37489
H         70.64358       53.13510       57.75773
H         71.69118       51.96641       57.85738
O         66.95618       49.77399       54.47028
H         67.27625       48.92853       54.06757
H         66.84644       50.39502       53.70757

Ca 1.70



