%chk=loop3.cluster88.chk
%nprocshared=48
%mem=10GB
%nosave
#b3lyp/svp scf=(tight,noincore) Test 
#IOP(5/87=12) Density=Current Pop=(MK,readradii) iop(6/33=2) iop(6/42=6)

loop3.cluster88 

   0  1 
C         92.16324       75.35774       22.65690
C         93.64486       75.17819       22.48506
O         94.14866       74.10566       22.78637
H         91.62304       74.58801       22.06500
H         91.89513       75.24185       23.72787
H         91.83140       76.35967       22.31285
N         94.41219       76.18487       21.97387
C         95.84729       76.02954       21.75769
C         96.62005       75.87557       23.05563
O         97.26086       74.85292       23.25475
C         96.46662       77.15923       20.89400
C         96.32334       78.60783       21.31504
O         95.34449       79.01431       22.14500
O         97.02694       79.44848       20.77994
H         93.94997       77.05944       21.68912
H         95.99666       75.10945       21.15633
H         96.06073       77.09132       19.86437
H         97.55440       76.93112       20.82804
N         96.61231       76.87017       23.97987
C         97.37054       76.81739       25.21068
C         98.87233       76.90884       24.98777
O         99.37207       77.92177       24.51700
C         96.90984       77.94818       26.14003
C         97.70860       77.95011       27.44621
C         97.11085       78.87500       28.50134
C         95.85968       78.24864       29.14004
N         95.44755       79.00448       30.31850
H         96.00459       77.67629       23.83069
H         97.11971       75.86582       25.72997
H         95.83012       77.78351       26.33237
H         97.03015       78.93988       25.64586
H         98.74231       78.28889       27.21762
H         97.77708       76.92337       27.86952
H         96.90205       79.88524       28.08136
H         97.87760       78.97949       29.29591
H         96.10740       77.21294       29.46466
H         95.01873       78.18792       28.41471
H         94.67475       78.48932       30.79813
H         96.25116       79.08595       30.98411
H         95.11767       79.95579       30.04006
N         99.64747       75.87748       25.40329
C        101.09971       75.88685       25.48093
C        101.71654       74.94760       24.44842
O        102.92149       74.74090       24.47144
C        101.52212       75.52800       26.93465
C        100.94777       74.23517       27.47230
O         99.76960       74.16791       27.78765
O        101.75097       73.18018       27.69840
H         99.16823       75.02703       25.70327
H        101.51471       76.89580       25.26057
H        101.20533       76.33923       27.62710
H        102.62994       75.47623       26.97845
N        100.95281       74.42555       23.44805
C        101.48754       73.55873       22.40575
C        100.48866       73.44317       21.25344
O         99.58968       74.26827       21.17011
H         99.95782       74.67291       23.41194
H        101.68961       72.57792       22.88170
H        102.43673       73.96848       21.99729
N        100.54622       72.46320       20.30625
C        101.56421       71.42328       20.22985
C        101.00503       70.22608       19.43725
O        100.50404       70.45086       18.34397
C        102.79378       71.98812       19.49998
C        103.86369       70.94118       19.32561
N        104.49340       70.41134       20.39916
O        104.15787       70.56280       18.20180
H         99.80168       72.46621       19.59112
H        101.84718       71.13660       21.24914
H        103.21732       72.85452       20.04963
H        102.46526       72.34887       18.50022
H        104.26640       70.73104       21.35193
H        105.21213       69.68381       20.27258
N        101.02712       68.92947       19.88343
C        101.69785       68.46290       21.08414
C        100.70689       68.01819       22.11106
O         99.84069       68.79284       22.47150
H        100.56380       68.21175       19.30401
H        102.32606       69.21895       21.56660
H        102.39927       67.64443       20.81453
N        100.82173       66.79101       22.67787
C        100.01364       66.35313       23.80893
C        100.95496       66.01810       24.96066
O        102.15766       65.93436       24.75720
C         99.19400       65.11812       23.37384
C         98.09513       65.48247       22.39860
C         96.88399       66.01559       22.87463
C         98.25849       65.27855       21.01809
C         95.85433       66.34176       21.98471
C         97.23369       65.62261       20.12788
C         96.02847       66.15589       20.60954
O         95.03625       66.49366       19.75977
H        101.56199       66.15779       22.33988
H         99.32824       67.15629       24.16365
H         98.71891       64.59701       24.22966
H         99.90130       64.39441       22.91000
H         96.73475       66.16223       23.93573
H         99.18217       64.86848       20.63112
H         94.92086       66.74142       22.36315
H         97.37531       65.47432       19.06464
H         95.13316       66.40323       18.80068
N        100.45827       65.80470       26.20849
C        101.29773       65.36976       27.32918
C        100.91761       63.93560       27.69411
O        101.36315       63.41720       28.71140
C        101.20803       66.44407       28.45112
C         99.85978       66.44318       29.21165
C        102.40221       66.36752       29.42230
C         99.56796       67.81742       29.81906
H         99.44264       65.89904       26.35904
H        102.36435       65.33485       27.02119
H        101.31457       67.41366       27.91365
H         99.85813       65.64849       29.99222
H         99.01844       66.23507       28.52361
H        103.35449       66.45313       28.85505
H        102.38460       67.20793       30.14577
H        102.40910       65.41410       29.98781
H        100.35535       68.13623       30.53003
H         99.50275       68.56657       28.99839
H         98.59288       67.80251       30.34751
N        100.13695       63.20924       26.83428
C         99.69992       61.84480       27.04622
C         98.76830       61.77436       28.23520
O         98.68345       60.73771       28.87130
C         98.90953       61.37142       25.80346
O         99.65870       61.57751       24.63138
H         99.83536       63.64369       25.95643
H        100.59104       61.19033       27.18252
H         97.95793       61.95781       25.75380
H         98.65589       60.29471       25.88276
H         99.02386       61.89404       23.93309
N         97.95598       62.84065       28.51188
C         96.97990       62.83222       29.58895
C         96.12611       64.09232       29.56208
O         96.64130       65.18563       29.39604
C         97.64534       62.72459       30.96513
H         98.01521       63.67726       27.91708
H         96.31370       61.95104       29.45895
H         98.35266       63.56363       31.12827
H         96.86323       62.75457       31.75665
H         98.18631       61.76388       31.07702
N         94.80332       63.97697       29.85432
C         93.87347       65.07570       30.08473
C         94.12955       66.41745       29.38048
O         94.06782       67.45742       30.02557
C         93.67624       65.19888       31.60195
H         94.45379       63.03719       30.09489
H         92.90167       64.74754       29.65300
H         93.34090       64.22237       32.01801
H         94.63999       65.46632       32.08681
H         92.90970       65.95996       31.85297
N         94.23934       66.45965       28.01800
C         93.99680       67.67420       27.22052
C         92.70229       67.52152       26.41844
O         92.15989       68.53368       25.99906
C         95.13241       67.98493       26.20656
C         96.35663       68.69199       26.79851
C         96.05237       70.10026       27.28015
O         95.76182       71.13459       26.44930
O         96.10356       70.32783       28.47586
H         94.35126       65.56325       27.52470
H         93.83099       68.55420       27.88359
H         94.76379       68.64846       25.39441
H         95.42774       67.02190       25.73652
H         97.16685       68.74071       26.04116
H         96.72556       68.07749       27.64780
N         92.13807       66.30124       26.16741
C         90.92128       66.16142       25.40057
H         90.17101       66.91979       25.70700
H         91.14457       66.24235       24.31547
H         90.48937       65.15704       25.59446
H         92.57187       65.43581       26.50180
Ca        95.68195       71.71556       24.25178
O         98.05652       72.86303       25.35325
H         98.92780       72.39438       25.36239
H         97.94351       73.20284       26.27544
O         92.95082       71.69144       25.08709
H         92.90129       72.13637       25.96941
H         93.15475       70.74721       25.29998
O         94.41210       69.83401       22.81219
H         94.77591       69.92738       21.89688
H         93.43536       69.95614       22.71515
O         97.93237       70.28033       24.06955
H         97.77537       69.85998       23.18770
H         98.88618       70.13536       24.28433
O         94.91302       74.25980       25.54921
H         94.16767       74.91055       25.57418
H         95.24136       74.21383       26.48135
O         96.66966       72.10973       21.54384
H         96.70644       71.48188       20.78063
H         96.72164       73.00320       21.12658

Ca 1.70



