%chk=loop2.cluster139.chk
%nprocshared=48
%mem=10GB
%nosave
#b3lyp/svp scf=(tight,noincore) Test 
#IOP(5/87=12) Density=Current Pop=(MK,readradii) iop(6/33=2) iop(6/42=6)

loop2.cluster139 

   -2  1 
C         91.19016       77.30627       32.47477
C         92.44003       76.75781       33.09580
O         93.45982       77.43342       33.07519
H         90.40174       77.43106       33.24869
H         91.38922       78.30119       32.01979
H         90.83119       76.61382       31.68833
N         92.42618       75.53911       33.71699
C         93.60794       74.98457       34.38720
C         93.69707       75.46397       35.84586
O         94.25376       74.77676       36.69285
C         93.60406       73.45008       34.20982
C         94.90525       72.80810       34.60290
O         94.91540       71.76587       35.45471
O         95.95332       73.19883       34.11305
H         91.54813       74.99610       33.72361
H         94.51209       75.35172       33.85516
H         93.45626       73.23767       33.12934
H         92.75652       72.98987       34.76701
N         93.13336       76.65503       36.19020
C         93.08209       77.23300       37.52806
C         91.95546       78.29484       37.53399
O         91.67053       78.86456       36.48681
C         94.46239       77.80459       37.90535
H         92.66313       77.16915       35.45113
H         92.79610       76.42587       38.23831
H         95.24311       77.01698       37.83352
H         94.73827       78.63600       37.22386
H         94.49307       78.18883       38.94268
N         91.17431       78.55094       38.61807
C         91.56534       78.21831       39.97598
C         90.96489       76.93714       40.45914
O         90.09641       76.38009       39.80256
C         91.13957       79.34808       40.92919
C         91.70389       80.68829       40.58872
O         92.21290       80.89979       39.49758
O         91.65260       81.67038       41.50795
H         90.39101       79.21053       38.48849
H         92.66008       78.11640       40.03470
H         91.46762       79.10288       41.95591
H         90.03155       79.45243       40.92340
N         91.40743       76.40264       41.63701
C         90.83897       75.19351       42.19551
C         90.96379       74.04310       41.23201
O         91.82009       74.09287       40.35937
H         92.16944       76.87211       42.15084
H         89.77768       75.39029       42.39350
H         91.33535       74.94195       43.16013
N         90.14711       72.95576       41.28681
C         89.10543       72.73543       42.29423
C         87.79891       73.46228       41.97591
O         86.87941       73.39115       42.78187
C         88.81948       71.22337       42.36012
C         90.08883       70.44914       42.62573
N         90.61514       70.38700       43.86931
O         90.65131       69.88038       41.70155
H         90.31153       72.21753       40.58690
H         89.47942       73.06394       43.29124
H         88.42092       70.92608       41.36514
H         88.05314       70.96343       43.12244
H         90.13571       70.83160       44.66500
H         91.48828       69.86447       44.03588
N         87.63607       74.17528       40.82037
C         86.43239       74.93877       40.53049
C         86.26012       75.98242       41.59204
O         85.19266       76.07807       42.18159
H         88.40000       74.22105       40.13397
H         85.53900       74.27623       40.47272
H         86.55564       75.44338       39.54786
N         87.32523       76.75835       41.93598
C         87.30380       77.67635       43.05852
C         87.50640       79.07218       42.51196
O         88.41119       79.77599       42.93019
C         88.39582       77.24673       44.07751
C         88.27949       78.00250       45.40218
O         88.27809       75.87161       44.34646
H         88.20063       76.66148       41.40590
H         86.31423       77.64291       43.56122
H         89.38741       77.44631       43.60323
H         89.13378       75.58272       44.76223
H         89.15603       77.76151       46.03999
H         88.24383       79.09856       45.25958
H         87.35562       77.67956       45.92704
N         86.70927       79.50876       41.50144
C         86.86912       80.81992       40.88171
C         86.28150       81.92129       41.75719
O         85.64184       81.63381       42.76087
C         86.21691       80.87352       39.45452
C         87.07713       80.18962       38.36168
C         84.74948       80.40030       39.42200
C         87.33835       78.69454       38.53457
H         86.01882       78.84866       41.12519
H         87.95344       81.03099       40.76159
H         86.19543       81.93606       39.13813
H         88.06412       80.69496       38.32744
H         86.59206       80.35324       37.37417
H         84.64559       79.30731       39.56759
H         84.15312       80.92070       40.20061
H         84.30692       80.62902       38.43304
H         87.88143       78.49083       39.47819
H         86.39373       78.11605       38.50510
H         87.98708       78.34944       37.70136
N         86.43692       83.22592       41.38246
C         85.79484       84.35684       42.04073
C         84.74140       84.96599       41.12141
O         84.52525       84.45521       40.03298
C         86.86159       85.36768       42.52339
C         87.62379       86.05498       41.42300
O         88.93694       85.81217       41.25720
O         87.07140       86.88112       40.71702
H         87.01202       83.42395       40.56096
H         85.24695       84.00721       42.94128
H         87.57593       84.81399       43.16474
H         86.39630       86.15160       43.15670
N         84.00515       86.03573       41.53193
C         82.81277       86.54276       40.85306
C         83.01210       86.87155       39.36072
O         82.43250       86.20314       38.52097
C         81.65114       85.56860       41.13924
C         80.30456       86.24895       41.07428
C         79.55727       86.27628       39.88798
C         79.78304       86.85874       42.23264
C         78.30192       86.89542       39.86530
C         78.53116       87.47473       42.20444
C         77.78857       87.49014       41.02273
H         84.22048       86.44341       42.45402
H         82.52699       87.48121       41.37448
H         81.76478       85.24665       42.19938
H         81.69567       84.62523       40.55411
H         79.93877       85.81368       38.98860
H         80.34853       86.85430       43.15748
H         77.72388       86.90990       38.95136
H         78.13635       87.93650       43.10094
H         76.81509       87.96223       41.00488
N         83.80786       87.91383       38.96344
C         84.03362       88.26606       37.56074
C         84.87789       87.24181       36.82802
O         84.83732       87.19948       35.60344
C         84.73361       89.63115       37.67039
C         85.44668       89.54968       39.01394
C         84.43480       88.82070       39.88687
H         83.07733       88.39063       37.00717
H         85.37623       89.91714       36.80835
H         83.94462       90.40534       37.79063
H         86.32668       88.88244       38.88438
H         85.79073       90.51593       39.43978
H         84.96315       88.31783       40.72023
H         83.64578       89.49750       40.28368
N         85.68428       86.39295       37.50961
C         86.48644       85.36300       36.86682
C         85.58850       84.27984       36.27541
O         85.92360       83.71720       35.24421
C         87.42360       84.79372       37.92848
C         88.56950       83.93997       37.39832
C         89.44374       83.60624       38.55621
O         89.08296       82.76034       39.35559
O         90.45885       84.41912       38.89372
H         85.74183       86.49335       38.53406
H         87.12231       85.83117       36.08221
H         86.81253       84.24386       38.66025
H         87.90189       85.65972       38.44224
H         89.15966       84.54451       36.67962
H         88.21584       83.01087       36.90326
N         84.39714       83.98020       36.87535
C         83.44938       83.01342       36.36407
H         82.50109       83.54033       36.12437
H         83.81202       82.49262       35.45606
H         83.22973       82.26252       37.15060
H         84.12433       84.48570       37.72152
Ca        91.29169       83.75558       40.82874
O         89.33891       82.77867       43.09270
H         88.67500       82.72275       43.82389
H         89.60725       81.84135       42.93835
O         92.31399       86.41558       40.77708
H         92.07061       87.23318       41.27831
H         93.27288       86.27157       40.97727
O         93.78793       83.67162       39.63045
H         93.54237       82.79746       40.01554
H         94.76143       83.71714       39.78376
O         93.21605       83.76149       42.99108
H         93.70280       83.33442       43.73832
H         93.87860       83.80085       42.25749

Ca 1.70



