%chk=loop4.cluster123.chk
%nprocshared=48
%mem=10GB
%nosave
#b3lyp/svp scf=(tight,noincore) Test 
#IOP(5/87=12) Density=Current Pop=(MK,readradii) iop(6/33=2) iop(6/42=6)

loop4.cluster123 

   -3  1 

C         45.44715       45.92894       61.75176
C         45.99447       45.49298       63.07942
O         46.93048       44.71027       63.10448
H         44.57255       46.59874       61.88464
H         46.23556       46.49423       61.20958
H         45.13784       45.05356       61.14398
N         45.49198       46.02674       64.23194
C         46.04504       45.78603       65.56343
C         47.53400       46.00457       65.64261
O         48.29046       45.11177       65.98904
C         45.51287       44.53693       66.26683
C         45.52708       43.25407       65.48214
O         44.45774       42.69993       65.28423
O         46.64553       42.69093       64.96005
H         44.74163       46.72856       64.15267
H         45.65158       46.59308       66.22257
H         44.44517       44.75866       66.51475
H         46.02736       44.42618       67.24779
N         47.98690       47.26263       65.44349
C         49.34616       47.71214       65.65166
C         49.77155       47.57493       67.10729
O         50.51522       46.66578       67.45858
C         50.41565       47.17609       64.66628
C         51.65725       48.09952       64.80660
C         49.93788       47.17025       63.20815
C         52.86549       47.62265       64.02270
H         47.29269       47.98431       65.19893
H         49.30148       48.80349       65.44711
H         50.66413       46.12787       64.94636
H         51.94929       48.15167       65.86937
H         51.40492       49.14214       64.49875
H         50.70998       46.69791       62.56539
H         49.01404       46.56968       63.09314
H         49.75543       48.20486       62.85036
H         52.70330       47.74328       62.93234
H         53.74822       48.22766       64.31620
H         53.05439       46.56026       64.26818
N         49.42471       48.56093       67.97171
C         50.01081       48.72860       69.29160
C         48.96040       48.65847       70.38142
O         47.87804       49.19522       70.19547
C         50.71258       50.10594       69.36655
C         49.80606       51.26438       69.02607
O         49.15371       51.92511       70.00119
O         49.66552       51.61129       67.86343
H         48.77005       49.28079       67.63856
H         50.79637       47.97548       69.47019
H         51.58268       50.12804       68.67566
H         51.11440       50.25923       70.39252
N         49.23097       48.12763       71.60901
C         50.44850       47.40837       71.94230
C         50.39442       46.03683       71.31000
O         49.34669       45.41274       71.39317
H         48.52154       48.22387       72.35163
H         50.44248       47.22068       73.03484
H         51.35462       48.01627       71.73684
N         51.44023       45.45934       70.66161
C         52.76427       46.04169       70.51140
C         53.47755       45.29442       69.38032
O         53.59317       44.08031       69.48195
C         53.53025       45.92056       71.83879
C         54.96260       46.26084       71.65436
O         55.85807       45.27563       71.78339
O         55.31546       47.38347       71.32443
H         51.28899       44.50618       70.29309
H         52.69233       47.10351       70.28171
H         53.49600       44.86407       72.18252
H         53.09597       46.55748       72.63839
N         54.00673       45.90145       68.27323
C         54.06730       47.33291       67.99513
C         55.50124       47.83116       67.99844
O         55.72218       48.99162       67.68079
H         54.46779       45.28870       67.58122
H         53.45236       47.96869       68.64753
H         53.68265       47.48097       66.97068
N         56.53514       46.97624       68.26752
C         57.93312       47.30468       68.03207
C         58.39614       46.75437       66.68107
O         59.57575       46.86576       66.37982
C         58.80076       46.84025       69.22445
C         58.88453       45.31104       69.41266
C         59.50732       44.96177       70.73938
N         58.86406       45.28093       71.88345
O         60.57169       44.36609       70.78520
H         56.32536       46.00525       68.51467
H         58.06526       48.40699       67.96657
H         58.38443       47.32737       70.13207
H         59.83920       47.21568       69.09059
H         59.47258       44.87794       68.57732
H         57.88569       44.83146       69.41091
H         57.98910       45.80146       71.83779
H         59.22972       45.01294       72.80661
N         57.50606       46.22525       65.77789
C         57.86510       45.95967       64.38531
C         58.28386       44.52779       64.13068
O         57.52887       43.59962       64.38822
C         56.75257       46.45670       63.41507
C         56.90492       45.86649       61.99877
C         56.80019       47.99403       63.35968
H         56.50472       46.18735       66.01742
H         58.75514       46.56821       64.12302
H         55.74456       46.14125       63.76383
H         56.60407       44.79403       62.01732
H         56.22780       46.37813       61.28424
H         57.94911       45.93321       61.62823
H         57.80911       48.34994       63.04915
H         56.06272       48.38745       62.63078
H         56.56963       48.41666       64.35954
N         59.49195       44.31725       63.51807
C         60.03203       43.02743       63.13640
C         59.17841       42.35111       62.07943
O         59.17135       42.82042       60.94894
C         60.36070       42.17431       64.37104
C         61.35176       42.87184       65.26824
N         60.92189       43.59528       66.32693
O         62.54886       42.78446       65.03654
H         60.07426       45.13483       63.28905
H         61.01186       43.20082       62.63452
H         60.80824       41.20947       64.04274
H         59.44379       41.95026       64.94794
H         59.91390       43.69724       66.51277
H         61.59659       44.06291       66.94978
N         58.45460       41.23124       62.35674
C         57.82409       40.43317       61.31652
C         56.32394       40.62889       61.29006
O         55.77211       41.30089       62.15029
C         58.19640       38.94446       61.58102
C         59.68730       38.75456       61.47083
C         60.47560       38.46748       62.60138
C         60.30024       38.88634       60.21816
C         61.86381       38.33436       62.47116
C         61.67946       38.74456       60.08953
C         62.46821       38.47427       61.21486
O         63.80468       38.35170       61.09371
H         58.38218       40.89454       63.32657
H         58.18786       40.73443       60.31075
H         57.70517       38.24632       60.86985
H         57.84735       38.66234       62.60222
H         60.02216       38.36669       63.58064
H         59.70355       39.09858       59.34070
H         62.46980       38.12926       63.34581
H         62.13530       38.85062       59.11431
H         64.24265       38.45678       60.23617
N         55.60678       40.02079       60.29893
C         54.15193       39.87140       60.25971
C         53.29889       41.08095       59.95901
O         52.12040       40.89280       59.69164
C         53.65795       39.18078       61.54436
C         54.28753       37.79069       61.63338
C         53.66324       36.96103       62.70602
O         54.17052       36.97823       63.95181
O         52.80987       36.13903       62.41221
H         56.13692       39.50577       59.57954
H         53.93927       39.20623       59.39359
H         52.55393       39.07710       61.49673
H         53.89104       39.78505       62.45101
H         55.38552       37.85451       61.78881
H         54.10987       37.27855       60.66405
N         53.79501       42.33516       59.95171
C         52.95020       43.50682       59.76345
C         53.27222       44.17685       58.43379
O         52.36902       44.70129       57.79422
C         53.21432       44.46632       60.93911
C         52.93377       43.88085       62.34983
C         51.46183       43.74114       62.69237
O         51.07875       43.43291       63.95158
O         50.60639       43.93031       61.84412
H         54.79483       42.47711       60.13530
H         51.86531       43.24918       59.75452
H         52.63043       45.40409       60.81851
H         54.29190       44.72947       60.89136
H         53.38630       44.58786       63.07340
H         53.45207       42.90527       62.49341
N         54.54290       44.15512       57.93601
C         54.91968       44.79592       56.69709
H         55.98080       44.54608       56.47831
H         54.29562       44.43954       55.85077
H         54.83949       45.89756       56.80253
H         55.28201       43.65969       58.44577
Ca        48.86009       43.06537       64.42075
O         50.20717       40.77755       62.32051
H         50.98555       40.70189       62.92623
H         50.58394       41.12756       61.47797
O         47.39289       41.60967       62.03366
H         46.45465       41.48081       62.32153
H         47.55090       40.89199       61.37008
O         48.28656       40.30369       65.14551
H         48.73810       39.61924       64.59190
H         48.17862       39.88266       66.03462
O         49.88951       42.26457       66.85928
H         49.44276       42.04574       67.71411
H         50.45826       43.04954       67.05999

Ca 1.70



