%chk=loop3.cluster149.chk
%nprocshared=48
%mem=10GB
%nosave
#b3lyp/svp scf=(tight,noincore) Test 
#IOP(5/87=12) Density=Current Pop=(MK,readradii) iop(6/33=2) iop(6/42=6)

loop3.cluster149 

   0  1 
C         53.53498       54.51086       46.86909
C         53.76250       53.68297       48.10671
O         52.79896       53.16952       48.65469
H         52.88505       55.37974       47.11624
H         54.48877       54.91059       46.46461
H         53.03919       53.90446       46.08468
N         55.03041       53.51719       48.59671
C         55.39339       52.87079       49.86636
C         55.11032       53.74448       51.08058
O         56.00247       53.90039       51.90726
C         54.89047       51.43165       50.08458
C         55.32726       50.49965       48.99210
O         54.83233       50.57968       47.88012
O         56.26263       49.56191       49.24152
H         55.80843       53.90174       48.04048
H         56.50417       52.76916       49.85002
H         53.79209       51.37522       50.22698
H         55.36362       51.08035       51.03117
N         53.92004       54.38998       51.24552
C         53.68109       55.31119       52.33916
C         53.41454       54.62126       53.67146
O         53.34341       55.30738       54.67710
C         52.55926       56.29619       51.99033
C         51.18159       55.63386       51.85987
C         50.10736       56.71865       51.84858
C         48.69154       56.15352       51.92891
N         48.45732       55.47593       53.20228
H         53.20700       54.31766       50.52479
H         54.59603       55.93339       52.46268
H         52.80677       56.83819       51.04925
H         52.52968       57.04218       52.81266
H         51.02121       54.98543       52.73897
H         51.10921       55.00397       50.94445
H         50.21523       57.33349       50.93085
H         50.24589       57.38124       52.73214
H         48.48680       55.45967       51.08284
H         47.99125       57.01233       51.85761
H         48.87475       54.52018       53.18772
H         48.82929       56.02430       54.01195
H         47.42978       55.40323       53.32501
N         53.27404       53.26622       53.75508
C         53.36308       52.58567       55.04280
C         54.25527       51.36939       54.96590
O         54.51532       50.84321       53.89733
C         52.05639       52.37881       55.80082
C         50.87854       52.08413       54.96852
O         50.25765       50.92857       55.18926
O         50.34863       52.96472       54.31059
H         53.30664       52.69779       52.89967
H         53.95871       53.23510       55.71692
H         51.79606       53.27616       56.40155
H         52.18761       51.54286       56.52654
N         54.90648       51.00392       56.10194
C         56.05169       50.12254       56.10264
C         55.76181       48.71623       55.68292
O         56.59031       48.13857       54.98881
H         54.67454       51.47947       56.98561
H         56.46664       50.10476       57.13182
H         56.83609       50.55306       55.44107
N         54.65159       48.05389       56.11612
C         54.45429       46.64404       55.80078
C         54.37958       46.38634       54.29880
O         54.77118       45.30769       53.87610
C         53.31040       45.98837       56.63922
C         52.16066       45.39550       55.85652
N         51.85366       44.08140       55.97074
O         51.49174       46.10669       55.12731
H         53.96953       48.55176       56.71097
H         55.38680       46.14554       56.15537
H         52.89840       46.71747       57.36798
H         53.76197       45.18282       57.25921
H         52.39468       43.46414       56.59353
H         51.06340       43.68436       55.44102
N         53.91841       47.34309       53.42963
C         53.86570       47.12162       51.98836
C         52.60777       46.38913       51.55154
O         52.00829       46.78689       50.56133
H         53.64804       48.26988       53.78912
H         54.78431       46.60117       51.64706
H         53.87011       48.10991       51.47206
N         52.11492       45.33979       52.27772
C         50.89048       44.61295       51.96812
C         49.64723       45.49141       52.00379
O         48.60626       45.02930       51.56578
C         51.01033       43.84620       50.63975
C         52.32483       43.11234       50.52087
C         52.68261       42.08530       51.41541
C         53.21234       43.47302       49.49734
C         53.91140       41.42713       51.27054
C         54.43399       42.81902       49.35735
C         54.78689       41.78954       50.23900
O         55.96181       41.14377       50.09799
H         52.61039       45.03219       53.11289
H         50.75050       43.83906       52.75493
H         50.90695       44.56369       49.80008
H         50.17273       43.11702       50.55571
H         52.01477       41.79292       52.21689
H         52.95584       44.26717       48.80811
H         54.18321       40.63332       51.95588
H         55.10451       43.11322       48.56084
H         56.57411       41.36012       49.37945
N         49.68765       46.76722       52.50947
C         48.54783       47.67195       52.61386
C         47.65689       47.34983       53.82708
O         47.48309       48.20790       54.67725
C         47.85770       47.92872       51.21727
C         47.92665       49.43652       50.85628
C         46.43559       47.36644       51.11552
C         47.36920       49.76999       49.47001
H         50.58196       47.14225       52.84776
H         49.00204       48.64803       52.90529
H         48.46236       47.43333       50.42522
H         49.00569       49.70348       50.84469
H         47.42892       50.07222       51.61846
H         46.42459       46.26938       51.25448
H         45.81588       47.84889       51.88245
H         45.98555       47.56132       50.12050
H         47.67571       49.00285       48.72745
H         46.26163       49.83278       49.49999
H         47.76481       50.75284       49.13718
N         47.06117       46.13604       53.96748
C         46.16747       45.78324       55.06614
C         44.74510       45.85694       54.58530
O         43.91379       46.44596       55.26692
C         46.44275       44.34646       55.55893
O         46.46055       43.44623       54.47969
H         47.18686       45.44158       53.23553
H         46.27943       46.46786       55.93856
H         45.63168       44.06879       56.27702
H         47.41469       44.29634       56.09038
H         46.21921       42.55256       54.83351
N         44.39139       45.28658       53.39548
C         43.03247       45.19457       52.90209
C         42.29556       46.53922       52.82433
O         41.08022       46.54063       52.74648
C         42.28951       44.12295       53.71206
H         45.12267       44.85096       52.81634
H         43.07707       44.78323       51.87116
H         42.92918       43.21128       53.77477
H         42.05735       44.45836       54.74222
H         41.35525       43.83002       53.18871
N         42.99215       47.72087       52.86004
C         42.35069       49.03461       52.84913
C         42.99966       49.97146       51.82984
O         43.98767       49.60190       51.22540
C         42.55456       49.65232       54.23663
H         44.00617       47.69999       52.95279
H         41.26318       48.93818       52.64885
H         42.19852       48.95523       55.02328
H         43.63631       49.85362       54.40955
H         41.99637       50.60545       54.33630
N         42.48690       51.23834       51.67017
C         43.09634       52.41171       51.00923
C         43.55032       52.34509       49.55211
O         43.93402       53.38989       49.04142
C         44.15332       53.04698       51.93661
C         45.49160       52.32373       51.94034
C         46.11469       52.39244       53.27829
O         46.38363       53.45590       53.79847
O         46.33354       51.23539       53.91726
H         41.62705       51.44635       52.19611
H         42.28890       53.17677       51.01294
H         43.70422       53.05964       52.95583
H         44.36205       54.10820       51.66830
H         46.15531       52.69760       51.13009
H         45.37355       51.25487       51.77759
N         43.56417       51.19714       48.81516
C         44.03319       51.16537       47.44281
H         44.99739       50.61684       47.39554
H         43.28787       50.63960       46.81255
H         44.18793       52.17973       47.01732
H         43.25790       50.30989       49.21880
Ca        48.07742       50.85395       55.15980
O         45.39902       51.19648       56.91297
H         45.12833       50.80219       57.77944
H         44.69061       51.85686       56.70770
O         49.63379       51.33753       57.88722
H         49.46470       50.84312       58.72638
H         50.22972       52.08347       58.14868
O         50.02087       48.54227       56.16848
H         50.87802       48.34470       55.71478
H         49.74587       47.69890       56.60265
O         47.80956       53.30617       56.65491
H         48.55556       53.50828       56.03833
H         47.02662       53.19786       56.06356
O         47.17853       48.98765       58.23933
H         47.23931       48.98712       59.22770
H         46.39857       48.41166       58.03800

Ca 1.70



