%chk=loop1.cluster114.chk
%nprocshared=48
%mem=10GB
%nosave
#b3lyp/svp scf=(tight,noincore) Test 
#IOP(5/87=12) Density=Current Pop=(MK,readradii) iop(6/33=2) iop(6/42=6)

loop1.cluster114 

   0  1 
C         39.34715       41.81947       41.38064
C         40.53637       42.31173       40.60540
O         41.20488       41.51475       39.96301
H         38.54914       41.52781       40.66801
H         39.61681       40.94422       42.00544
H         38.93921       42.61650       42.03790
N         40.79848       43.64990       40.54923
C         41.84908       44.25524       39.73173
C         41.76036       43.79901       38.27473
O         42.77693       43.63026       37.61435
C         43.23348       44.02510       40.36533
C         44.27060       44.91532       39.73700
O         44.12178       46.25397       39.78101
O         45.24772       44.43302       39.18853
H         40.16248       44.29101       41.04769
H         41.65270       45.35032       39.75334
H         43.51855       42.95268       40.28230
H         43.18565       44.28815       41.44368
N         40.54968       43.48264       37.74897
C         40.38398       42.91613       36.42026
C         40.52483       43.94263       35.32772
O         40.81030       43.55582       34.20176
C         38.96182       42.32185       36.31275
C         38.85666       40.99630       37.08885
C         37.42914       40.43772       37.07745
C         36.52615       41.12120       38.11672
N         35.14643       40.66066       37.97861
H         39.71477       43.57991       38.34598
H         41.11187       42.09255       36.24111
H         38.71739       42.08951       35.25174
H         38.22335       43.07804       36.66225
H         39.21662       41.07985       38.13593
H         39.51787       40.27672       36.55818
H         37.46160       39.35723       37.33474
H         37.00942       40.53549       36.05258
H         36.54859       42.22571       38.00908
H         36.89836       40.86640       39.13465
H         35.09722       39.61999       38.07032
H         34.55932       41.09887       38.72438
H         34.77716       40.95049       37.04388
N         40.12800       45.22871       35.53541
C         39.76522       46.09953       34.42974
C         40.70185       47.32221       34.25048
O         40.89631       47.45685       32.86489
C         38.30788       46.51016       34.70955
C         37.62637       47.27321       33.63043
O         37.11836       48.49241       33.89680
O         37.45678       46.76490       32.53370
H         39.90789       45.54554       36.49162
H         39.78673       45.51774       33.47808
H         38.28709       47.10948       35.64632
H         37.70932       45.58728       34.87706
N         42.01169       47.15842       34.90873
C         42.90387       48.32087       34.73981
C         42.59415       49.55496       35.58787
O         43.49143       50.02809       36.27297
H         41.93311       46.91471       35.92085
H         42.92462       48.62393       33.67618
H         43.93903       47.99046       34.97949
N         41.38426       50.18865       35.51919
C         41.18856       51.55256       36.03064
C         40.58581       51.58424       37.40930
O         40.08140       50.57236       37.86633
C         40.19506       52.31132       35.11738
C         40.62251       52.25319       33.69440
O         41.70257       52.70602       33.35436
O         39.86618       51.57759       32.81613
H         40.65353       49.78652       34.91958
H         42.16435       52.09077       36.03990
H         40.07495       53.37276       35.41929
H         39.19877       51.81644       35.19733
N         40.48747       52.78331       38.05838
C         39.70541       53.00474       39.26180
C         40.34996       52.53199       40.54073
O         40.62846       53.36960       41.39070
H         40.88678       53.61773       37.60003
H         38.68651       52.58411       39.13985
H         39.58398       54.10783       39.36770
N         40.57969       51.21037       40.79098
C         41.12627       50.77346       42.06515
C         40.16597       51.11545       43.19303
O         39.02289       51.47484       42.94686
C         41.53415       49.27595       42.05008
C         40.36294       48.30445       41.85510
O         42.47130       49.08033       41.02001
H         40.36367       50.50818       40.08415
H         42.06206       51.35256       42.23325
H         42.00523       49.04634       43.03603
H         43.13820       48.42029       41.34358
H         39.62419       48.41238       42.67422
H         39.85312       48.46904       40.88453
H         40.74369       47.26006       41.86738
N         40.61409       51.07557       44.46789
C         39.82967       51.52602       45.61259
C         40.55198       52.64851       46.34181
O         40.07735       53.06312       47.39474
C         39.54258       50.32102       46.54604
C         40.83703       49.57501       46.96445
C         38.51336       49.40135       45.87830
C         40.57834       48.45888       47.97436
H         41.58038       50.75978       44.63301
H         38.84804       51.95299       45.30728
H         39.06042       50.71264       47.47066
H         41.50784       50.32036       47.43993
H         41.37479       49.12942       46.09779
H         38.89631       49.01168       44.91513
H         38.24483       48.55540       46.54076
H         37.58087       49.97829       45.68622
H         41.52350       48.21405       48.50238
H         39.82621       48.77557       48.72655
H         40.21889       47.54382       47.45695
N         41.69111       53.21198       45.83977
C         42.46171       54.21104       46.55883
C         43.87445       53.70131       46.76836
O         44.25281       52.69749       46.16838
C         42.42632       55.57129       45.81114
C         43.06433       55.53555       44.40978
O         41.10248       56.04110       45.72872
H         42.04607       52.91730       44.91818
H         42.02620       54.37453       47.56987
H         42.99988       56.31294       46.40757
H         40.61584       55.47743       45.07067
H         44.13356       55.24545       44.47297
H         42.53613       54.82380       43.74139
H         43.00247       56.54397       43.94811
N         44.71103       54.33498       47.63189
C         46.07750       53.90159       47.87919
C         46.21321       53.49968       49.33896
O         46.42085       52.32646       49.60859
C         47.04973       55.02611       47.44678
C         48.51742       54.67851       47.71255
O         46.72282       56.22532       48.09913
H         44.35384       55.15393       48.15140
H         46.31880       52.99785       47.26855
H         46.90556       55.17344       46.35136
H         47.16497       56.96235       47.60673
H         48.68657       54.44703       48.78572
H         48.82866       53.81156       47.09419
H         49.15193       55.54987       47.44559
N         46.11544       54.43583       50.33460
C         46.19004       54.08142       51.74247
C         45.15776       54.84676       52.55086
O         44.58768       55.81295       52.07179
C         47.63868       54.22732       52.26580
C         48.29535       55.62813       52.36241
C         47.82667       56.47962       53.56579
C         48.93712       57.46365       54.01339
N         48.58775       58.16137       55.25161
H         45.99567       55.42212       50.09818
H         45.93813       53.00141       51.84221
H         48.27230       53.62570       51.57590
H         47.72284       53.74713       53.26498
H         48.25580       56.20111       51.40941
H         49.36552       55.39091       52.54768
H         47.65418       55.80030       54.42663
H         46.87319       57.00438       53.33819
H         49.17558       58.20325       53.21893
H         49.85678       56.86949       54.21803
H         47.83577       58.86722       55.08360
H         48.28570       57.47069       55.96729
H         49.43482       58.63772       55.63847
N         44.86673       54.42924       53.80856
C         43.95074       55.13687       54.70168
C         42.53497       55.37119       54.15190
O         42.10841       56.51641       54.21802
C         43.89551       54.42780       56.07178
C         45.22781       54.52361       56.84580
C         45.46778       55.91230       57.37013
O         46.46187       56.52867       57.04040
O         44.60209       56.46685       58.23972
H         45.33396       53.57740       54.15049
H         44.36966       56.15148       54.88703
H         43.63475       53.36207       55.90749
H         43.10325       54.87888       56.70821
H         46.07904       54.19399       56.20973
H         45.18555       53.85490       57.72817
N         41.70375       54.41560       53.63030
C         42.03658       53.03328       53.36380
H         43.06892       52.76138       53.62880
H         41.33166       52.36930       53.90646
H         41.89599       52.85335       52.27405
H         40.75326       54.71204       53.35666
Ca        40.66122       49.59558       32.20854
O         39.54313       50.76759       28.90203
H         38.64877       50.37603       28.74409
H         39.52664       51.62618       28.41041
O         42.12223       49.29709       28.78608
H         41.99762       48.44144       28.30343
H         42.48599       49.91534       28.10466
O         42.78869       47.44525       30.92854
H         42.80171       46.68129       31.55688
H         42.91584       47.02799       30.04198
O         39.66294       47.31791       30.05870
H         38.73067       47.41257       29.73927
H         39.87406       46.35956       29.92910
O         41.55178       52.33046       30.13171
H         41.03428       52.52673       30.94702
H         42.19441       53.07867       30.07465
O         43.43803       50.41708       31.97386
H         43.48466       51.32589       31.58834
H         44.10310       49.89157       31.46355
O         38.05868       49.80872       31.13029
H         38.02064       48.99046       31.67523
H         37.11569       50.08008       31.02242

Ca 1.70



