%chk=loop2.cluster207.chk
%nprocshared=48
%mem=10GB
%nosave
#b3lyp/svp scf=(tight,noincore) Test 
#IOP(5/87=12) Density=Current Pop=(MK,readradii) iop(6/33=2) iop(6/42=6)

loop2.cluster207 

   -2  1 
C         41.69796       40.79291        2.33392
C         40.36871       41.48148        2.18292
O         40.26015       42.62757        2.59461
H         42.41931       41.47294        2.83780
H         41.61016       39.87515        2.95066
H         42.11160       40.54660        1.33793
N         39.28104       40.87554        1.62130
C         39.23776       39.48119        1.18343
C         37.83435       38.88075        1.29921
O         36.86161       39.59695        1.48534
C         39.84007       39.27823       -0.23460
C         39.40709       40.25184       -1.29306
O         39.85451       40.13899       -2.42325
O         38.61135       41.29291       -1.00237
H         38.41467       41.42250        1.57523
H         39.81901       38.87262        1.90398
H         39.61884       38.24578       -0.58375
H         40.93758       39.38662       -0.19098
N         37.69664       37.52105        1.25222
C         36.43649       36.79093        1.35172
C         35.52841       37.09266        0.19116
O         35.56499       36.35323       -0.78432
C         35.73233       36.91457        2.71283
H         38.55075       36.95671        1.13544
H         36.68448       35.70945        1.25646
H         36.34559       36.43673        3.50334
H         35.54027       37.96760        3.00025
H         34.75491       36.38106        2.67170
N         34.60791       38.09484        0.25278
C         33.67681       38.30317       -0.83649
C         34.43547       38.85269       -2.06896
O         34.54852       40.23753       -1.94609
C         32.42167       39.10284       -0.38215
C         32.61923       40.44249        0.29319
O         33.73088       40.90968        0.47924
O         31.54069       41.11072        0.74414
H         34.52569       38.66042        1.10733
H         33.26905       37.30303       -1.10527
H         31.89315       38.47196        0.36527
H         31.74580       39.23470       -1.25354
N         33.73036       38.49964       -3.31698
C         34.45652       38.87164       -4.55143
C         34.02767       40.23790       -5.07454
O         34.38075       40.59650       -6.18924
H         33.55774       37.46846       -3.33101
H         34.19989       38.12092       -5.33260
H         35.56199       38.82497       -4.41576
N         33.23953       41.03881       -4.30433
C         32.72555       42.36213       -4.64006
C         33.75943       43.50722       -4.69595
O         33.35179       44.65812       -4.78430
C         31.69570       42.72777       -3.53472
C         32.30191       42.98027       -2.16227
N         31.56444       43.57481       -1.20231
O         33.46018       42.67880       -1.92414
H         32.91500       40.65679       -3.41606
H         32.17700       42.29518       -5.60321
H         30.94010       41.91378       -3.43776
H         31.16332       43.64250       -3.85152
H         30.59904       43.86943       -1.39783
H         31.97512       43.77550       -0.27957
N         35.09562       43.27895       -4.59182
C         36.08336       44.34571       -4.44064
C         35.95951       44.99484       -3.06764
O         35.51563       44.31791       -2.15374
H         35.41874       42.31990       -4.61086
H         35.96781       45.05827       -5.28028
H         37.10351       43.90608       -4.48712
N         36.29518       46.29267       -2.80094
C         36.88387       47.23026       -3.75782
C         38.16350       47.90477       -3.23300
O         38.90622       48.44621       -4.04139
C         35.81099       48.27302       -4.16896
C         35.21222       49.04847       -2.97262
O         36.31591       49.14195       -5.15744
H         36.06832       46.63677       -1.85778
H         37.18963       46.68958       -4.67326
H         34.96217       47.71985       -4.62768
H         36.58738       49.99796       -4.73380
H         34.44280       49.76060       -3.33737
H         34.70649       48.36244       -2.26185
H         35.99774       49.61376       -2.42847
N         38.46382       47.95219       -1.89729
C         39.62548       48.63464       -1.32795
C         39.57139       50.12413       -1.65559
O         40.24111       50.55475       -2.58282
C         40.99129       47.96218       -1.65850
C         40.86304       46.42672       -1.46990
C         42.07611       48.56422       -0.73483
C         42.17791       45.64979       -1.48274
H         37.82285       47.52605       -1.22026
H         39.54814       48.51696       -0.23003
H         41.28278       48.16152       -2.71393
H         40.22283       46.04248       -2.29416
H         40.36287       46.19893       -0.50434
H         43.08427       48.19863       -1.01827
H         42.10011       49.67201       -0.80780
H         41.88000       48.29207        0.32543
H         42.78198       45.88894       -2.38089
H         42.76187       45.87622       -0.56441
H         41.95210       44.56187       -1.47298
N         38.73191       50.97464       -0.99523
C         37.92725       50.58393        0.15985
C         38.79202       50.36858        1.38944
O         38.52658       49.44779        2.14858
C         36.79443       51.58979        0.43004
C         37.21846       52.93619        0.95429
O         38.13292       53.55292        0.43372
O         36.51732       53.50715        1.95196
H         38.66628       51.94413       -1.34178
H         37.38679       49.64442       -0.09143
H         36.08024       51.14572        1.15955
H         36.24569       51.72839       -0.52481
N         39.90176       51.14478        1.60250
C         40.82174       50.87241        2.69818
C         40.15833       51.12151        4.04948
O         39.16697       51.84979        4.08157
C         42.15072       51.66049        2.50629
C         42.23783       53.06599        3.07221
C         41.83020       54.19655        2.33909
C         42.83285       53.24907        4.33480
C         42.03342       55.48382        2.86498
C         43.02451       54.52895        4.85460
C         42.63351       55.64696        4.11864
H         40.13996       51.87752        0.92032
H         41.08223       49.79488        2.59551
H         42.47127       51.65045        1.44109
H         42.96352       51.09006        2.98836
H         41.38728       54.08843        1.35769
H         43.16061       52.39477        4.91162
H         41.74191       56.35820        2.29652
H         43.49248       54.65134        5.82337
H         42.80372       56.63925        4.51858
N         40.61443       50.58276        5.22127
C         41.74335       49.67210        5.34262
C         41.33739       48.24077        5.04042
O         40.22947       47.98964        4.59369
C         42.10601       49.84184        6.82310
C         40.74243       49.97110        7.47493
C         40.02392       50.90445        6.50372
H         42.62457       49.95197        4.74543
H         42.76658       49.06125        7.25432
H         42.62413       50.82038        6.93829
H         40.25658       48.97035        7.42762
H         40.74738       50.30846        8.53166
H         38.92725       50.71808        6.54414
H         40.24499       51.97043        6.72896
N         42.22839       47.24101        5.30165
C         41.90795       45.83328        5.13912
C         43.15899       44.93182        5.18524
O         43.07164       43.86350        5.77632
C         40.87576       45.42890        6.24267
C         41.35232       45.84741        7.65544
C         40.36176       45.47251        8.71725
O         39.58570       46.30824        9.15412
O         40.41250       44.25129        9.28122
H         43.13495       47.49317        5.69711
H         41.47774       45.67519        4.12484
H         40.67339       44.33628        6.20826
H         39.90812       45.94135        6.05713
H         41.47309       46.94993        7.68455
H         42.34304       45.41643        7.91341
N         44.33301       45.20170        4.52789
C         44.65770       46.42624        3.81819
H         45.66148       46.32325        3.35383
H         43.91442       46.65060        3.02840
H         44.78323       47.27726        4.51367
H         45.06848       44.47857        4.55222
Ca        36.42688       40.93934       -0.94649
O         37.10824       41.18390       -3.67346
H         37.35957       41.23848       -4.62854
H         37.65223       40.44954       -3.31916
O         36.59738       42.76370        2.28744
H         35.71391       43.12647        2.53422
H         37.22782       43.18276        2.92547
O         38.11588       44.03925       -0.73486
H         38.20245       44.97187       -0.41741
H         38.87558       43.91530       -1.35796
O         34.48054       44.18737        0.59383
H         34.83578       45.03673        0.95738
H         33.79781       43.90194        1.25198

Ca 1.70



