%chk=loop4.cluster117.chk
%nprocshared=48
%mem=10GB
%nosave
#b3lyp/svp scf=(tight,noincore) Test 
#IOP(5/87=12) Density=Current Pop=(MK,readradii) iop(6/33=2) iop(6/42=6)

loop4.cluster117 

   -3  1 
C         50.56683       36.88400       28.87870
C         51.45444       38.09083       28.77152
O         52.63848       37.93074       28.53622
H         49.68503       37.02631       28.21864
H         51.09760       35.96679       28.54049
H         50.22207       36.74439       29.92332
N         50.91455       39.34022       28.90464
C         51.59978       40.61530       28.65686
C         52.62730       40.65299       27.49024
O         53.82559       39.98582       27.74995
C         51.98890       41.38425       29.93050
C         52.87745       40.65653       30.88885
O         52.41584       39.57924       31.54953
O         53.97626       41.10544       31.16280
H         49.90312       39.39436       29.09566
H         50.81054       41.28572       28.25202
H         51.06756       41.65121       30.49046
H         52.46292       42.33828       29.61167
N         51.99427       40.25823       26.22248
C         52.71212       40.41092       24.93419
C         53.86234       41.41726       24.90798
O         54.87248       41.15793       24.26913
C         53.08356       39.01720       24.36377
C         51.83264       38.21189       23.91063
C         53.96668       38.23440       25.34443
C         50.80291       37.83552       24.98821
H         51.11115       40.81272       26.13544
H         51.99667       40.85501       24.20231
H         53.67580       39.17823       23.43512
H         52.17542       37.27240       23.42836
H         51.30379       38.81238       23.13846
H         54.82613       38.85582       25.66560
H         53.39478       37.93535       26.23797
H         54.36337       37.31693       24.88278
H         49.96491       37.28990       24.50858
H         51.24871       37.18010       25.76264
H         50.34047       38.71680       25.46886
N         53.73386       42.62356       25.52767
C         54.73383       43.69017       25.44880
C         56.15501       43.18859       25.72419
O         56.43028       42.76595       26.82959
C         54.31756       44.86688       26.37742
C         53.92842       44.45234       27.78078
O         52.76436       44.55395       28.14072
O         54.83853       43.92619       28.62056
H         52.87383       42.79651       26.06483
H         54.70507       44.08854       24.41879
H         53.41747       45.32749       25.91666
H         55.11157       45.64087       26.42527
N         57.12710       43.15783       24.76309
C         56.90004       43.54574       23.37562
C         58.11185       43.29875       22.49443
O         59.19597       43.07028       23.00865
H         58.04772       42.78095       25.03415
H         56.61789       44.62012       23.31052
H         56.07557       42.92195       22.98106
N         58.02305       43.31131       21.13338
C         56.78731       43.54409       20.39697
C         55.86330       42.32949       20.22996
O         54.66289       42.56401       20.20758
C         56.98317       44.35550       19.09131
C         57.96197       43.78319       18.09859
O         59.27606       43.73059       18.39035
O         57.58335       43.45422       16.98684
H         58.88669       43.13339       20.60734
H         56.17375       44.26055       20.98988
H         57.33844       45.37665       19.34852
H         55.98718       44.46991       18.60426
N         56.25634       41.02736       20.05556
C         57.62523       40.51595       20.04417
C         57.67451       39.03874       19.61671
O         56.64246       38.47344       19.27597
H         55.48965       40.35233       19.91067
H         58.07192       40.63300       21.05331
H         58.22506       41.08678       19.30400
N         58.86305       38.36422       19.54228
C         58.96449       37.07798       18.83858
C         58.68815       35.81991       19.67460
O         58.62731       34.75601       19.07273
C         60.31027       36.95088       18.09054
C         60.51246       38.05965       17.04026
C         61.76747       37.81646       16.24169
N         62.98570       38.06711       16.77474
O         61.68188       37.40097       15.09552
H         59.72806       38.87358       19.78079
H         58.18937       37.06721       18.03615
H         60.29772       35.98546       17.53362
H         61.15154       36.92954       18.81348
H         60.55446       39.07308       17.49522
H         59.64346       38.03745       16.34649
H         63.07295       38.45716       17.72420
H         63.83947       37.90223       16.22012
N         58.43803       35.84478       21.02291
C         57.95830       34.64492       21.73910
C         58.77532       34.28870       22.98551
O         58.31310       33.48718       23.78666
C         56.44789       34.81404       22.07199
C         55.65568       35.17733       20.80429
C         56.17891       35.84423       23.17424
H         58.47346       36.74259       21.52640
H         57.99536       33.74599       21.08468
H         56.05436       33.83723       22.43469
H         54.56942       35.22487       21.02369
H         55.96718       36.16818       20.41336
H         55.82092       34.41362       20.01463
H         56.60046       36.83813       22.92335
H         55.08329       35.93911       23.30964
H         56.60713       35.50120       24.14002
N         60.02772       34.79034       23.17165
C         60.83639       34.50251       24.36271
C         61.59523       35.71426       24.88061
O         62.11034       35.61946       25.98704
C         61.90423       33.44276       24.03419
C         61.32671       32.06183       23.90604
N         61.22355       31.46672       22.69822
O         60.96637       31.46516       24.91060
H         60.44473       35.31527       22.39777
H         60.19510       34.13463       25.19910
H         62.67782       33.37778       24.83358
H         62.42256       33.76051       23.10382
H         61.49428       31.97102       21.84228
H         60.84699       30.51062       22.62204
N         61.86576       36.81286       24.11113
C         62.79022       37.83229       24.57817
C         62.18411       38.59513       25.76045
O         61.17902       39.27176       25.59649
C         63.22380       38.75545       23.41732
C         64.40898       39.57886       23.84143
C         65.67711       38.97804       23.95045
C         64.25390       40.93081       24.16865
C         66.76903       39.71778       24.40748
C         65.34401       41.66425       24.64507
C         66.60242       41.05542       24.77727
O         67.65038       41.74278       25.27288
H         61.52576       36.87674       23.14513
H         63.70768       37.29392       24.90559
H         62.36282       39.38126       23.09896
H         63.53505       38.15073       22.53357
H         65.81567       37.93568       23.68594
H         63.28318       41.40283       24.08906
H         67.74010       39.24533       24.49487
H         65.20702       42.69979       24.92555
H         67.55143       42.64479       25.60875
N         62.73956       38.45434       27.00053
C         62.21380       39.02976       28.24335
C         60.87077       38.46150       28.69293
O         60.43441       38.84231       29.77396
C         62.27557       40.57903       28.28169
C         63.73942       41.06514       28.25714
C         63.89444       42.53934       28.52530
O         65.01298       43.02614       28.57518
O         62.82046       43.32236       28.74877
H         63.58061       37.86913       27.08750
H         62.89197       38.69793       29.05890
H         61.84971       40.91072       29.25607
H         61.67695       41.05026       27.47245
H         64.20107       40.81619       27.27946
H         64.30351       40.53869       29.05910
N         60.21512       37.46484       28.02376
C         59.01208       36.82631       28.55264
C         59.30648       35.46253       29.16317
O         58.48230       34.97203       29.91749
C         57.95921       36.59744       27.44581
C         57.61365       37.83579       26.61807
C         57.03751       38.95698       27.42343
O         57.04448       40.08536       26.96442
O         56.32218       38.69823       28.53273
H         60.61782       37.08993       27.15884
H         58.57754       37.45746       29.36090
H         57.03470       36.17588       27.90002
H         58.35949       35.84153       26.73231
H         56.87174       37.54723       25.84400
H         58.52266       38.18888       26.08766
N         60.42724       34.75999       28.81738
C         60.68291       33.41167       29.28365
H         61.64660       33.38944       29.83118
H         59.88206       33.02571       29.94700
H         60.75481       32.73609       28.40365
H         61.10871       35.16433       28.17039
Ca        54.92313       41.69508       28.69538
O         56.43657       42.79871       31.55805
H         56.06577       42.94232       32.46395
H         57.32804       42.40403       31.72426
O         56.71743       39.61501       31.55746
H         57.09687       39.07749       30.82042
H         55.74595       39.44282       31.50417
O         57.76414       44.09100       28.99714
H         57.27999       44.59452       28.29762
H         58.71297       44.32991       28.85339
O         58.54150       41.45758       29.74036
H         59.35055       42.02669       29.73383
H         58.86377       40.58138       30.05589

Ca 1.70



