%chk=loop3.cluster42.chk
%nprocshared=48
%mem=10GB
%nosave
#b3lyp/svp scf=(tight,noincore) Test 
#IOP(5/87=12) Density=Current Pop=(MK,readradii) iop(6/33=2) iop(6/42=6)

loop3.cluster42 

   0  1 
C         58.86296       47.65758       34.86729
C         58.10416       46.95137       35.95374
O         58.54945       45.91845       36.43377
H         59.81520       47.13586       34.63493
H         58.24545       47.73012       33.94894
H         59.10809       48.68562       35.21608
N         56.96533       47.51267       36.44236
C         56.29951       47.02401       37.64382
C         55.41252       45.78936       37.36543
O         54.54977       45.82368       36.50084
C         55.52868       48.19202       38.28656
C         55.15881       47.94598       39.71851
O         55.46795       48.85380       40.65440
O         54.57893       46.93688       40.04648
H         56.67181       48.42007       36.04714
H         57.09785       46.78052       38.38166
H         54.63837       48.43492       37.67550
H         56.19026       49.08766       38.30756
N         55.62501       44.65829       38.08939
C         55.00973       43.33626       37.91421
C         53.64928       43.16477       38.57991
O         53.07110       42.09080       38.46799
C         55.97363       42.31909       38.60817
C         57.36446       42.32257       37.94203
C         57.32597       41.55910       36.61715
C         58.58240       41.78518       35.76089
N         58.30542       42.70349       34.65134
H         56.37034       44.71624       38.76635
H         54.90466       43.11371       36.83547
H         55.57608       41.28132       38.63339
H         56.09136       42.63744       39.67308
H         58.10207       41.81242       38.60151
H         57.73667       43.35803       37.80247
H         56.43333       41.79768       36.00618
H         57.24010       40.48762       36.89514
H         58.87761       40.81078       35.32110
H         59.43790       42.14974       36.37538
H         57.53937       42.30805       34.05517
H         58.02057       43.64654       34.99897
H         59.15857       42.79018       34.05416
N         53.14204       44.12954       39.38781
C         52.07652       43.86724       40.34604
C         51.15529       45.09191       40.59044
O         50.14376       44.93586       41.26118
C         52.80292       43.36762       41.63182
C         53.70896       44.45990       42.15997
O         55.05889       44.46482       42.08562
O         53.18130       45.42902       42.62627
H         53.72688       44.93956       39.54343
H         51.42053       43.05107       39.96646
H         53.39395       42.45976       41.38157
H         52.07159       43.08302       42.42251
N         51.45654       46.33891       40.10034
C         50.64798       47.53899       40.30448
C         50.40362       47.86524       41.76435
O         49.31747       48.30933       42.10167
H         52.31137       46.47143       39.55695
H         49.67642       47.44831       39.77488
H         51.19114       48.39780       39.84820
N         51.39100       47.68283       42.68121
C         51.19398       47.89650       44.11744
C         51.56060       49.31235       44.50881
O         51.36983       49.67766       45.66320
C         51.97403       46.84382       44.95314
C         53.46280       47.07455       45.00430
N         54.17215       46.78845       46.11468
O         54.03646       47.52123       44.03421
H         52.31147       47.42277       42.33336
H         50.12081       47.72573       44.34758
H         51.77345       45.82757       44.55484
H         51.60712       46.83696       45.99916
H         53.71973       46.39788       46.95182
H         55.18574       46.94924       46.12112
N         52.11439       50.16575       43.60055
C         52.47357       51.53065       43.90050
C         53.95924       51.74736       43.79322
O         54.37511       52.89608       43.79993
H         52.31203       49.84197       42.64055
H         52.15482       51.85078       44.91447
H         51.95807       52.17465       43.15599
N         54.83398       50.69305       43.71565
C         56.26358       50.89936       43.64414
C         56.96689       49.79354       42.77848
O         57.14391       48.52115       43.37809
C         56.82169       51.24109       45.05511
C         56.89465       50.06755       45.99586
C         55.89540       49.82822       46.95752
C         58.00170       49.21490       45.93245
C         55.99957       48.72391       47.81536
C         58.10249       48.12147       46.78553
C         57.09829       47.86028       47.71920
O         57.17762       46.77529       48.51515
H         54.48944       49.73670       43.75206
H         56.40228       51.82762       43.04392
H         56.16408       52.02058       45.50193
H         57.82572       51.71329       45.00208
H         55.03428       50.48074       47.03254
H         58.78545       49.40262       45.21658
H         55.21931       48.52481       48.53878
H         58.95944       47.47490       46.72452
H         57.90214       46.13771       48.42568
N         58.21557       50.33309       42.21805
C         59.23534       49.40235       41.71758
C         60.17905       49.00239       42.84151
O         60.65814       49.85872       43.57065
C         59.98546       50.08995       40.55027
C         58.96657       50.38312       39.41486
C         61.15918       49.22331       40.05726
C         59.57396       51.06628       38.19513
H         58.62213       51.15512       42.72375
H         58.75524       48.48932       41.29521
H         60.41070       51.05315       40.91187
H         58.17724       51.05885       39.81054
H         58.47621       49.44150       39.08190
H         61.88778       49.05612       40.87780
H         60.80070       48.24097       39.68519
H         61.72161       49.74539       39.25834
H         60.25157       50.37257       37.65660
H         58.76079       51.35501       37.49637
H         60.12870       51.97721       38.50153
N         60.53546       47.69576       42.97675
C         61.39442       47.19095       44.03992
C         62.71956       46.73790       43.46767
O         62.91769       46.82387       42.27179
C         60.68988       46.01967       44.74717
O         60.57708       44.92036       43.88655
H         60.21877       47.03665       42.26391
H         61.59552       47.99001       44.78416
H         59.68404       46.36111       45.05912
H         61.25875       45.70053       45.64468
H         59.73720       44.44724       44.12190
N         63.69356       46.27275       44.29496
C         64.99960       45.84274       43.79917
C         64.95317       44.44453       43.19630
O         65.77078       44.14173       42.33286
C         66.01596       45.94643       44.93172
H         63.52089       46.27858       45.30907
H         65.33669       46.55381       43.01128
H         65.69988       45.32223       45.79374
H         67.02658       45.64146       44.59435
H         66.05868       47.00841       45.26388
N         64.00300       43.54419       43.57573
C         63.78678       42.26931       42.89695
C         63.34616       42.52863       41.46591
O         63.87859       41.93941       40.54108
C         62.68385       41.48194       43.62221
H         63.36199       43.80281       44.34430
H         64.70409       41.63668       42.90861
H         63.03321       41.19808       44.63805
H         61.75937       42.09122       43.72622
H         62.43215       40.55193       43.06857
N         62.35711       43.43484       41.24305
C         61.81697       43.75636       39.92412
C         62.89555       44.30787       39.01305
O         63.10926       43.75630       37.94041
C         60.66344       44.77098       40.09663
C         59.49743       44.12107       40.86321
C         58.45112       45.11849       41.23072
O         57.52807       45.33900       40.48636
O         58.42670       45.64507       42.45685
H         61.97918       43.92828       42.05983
H         61.39153       42.84061       39.45780
H         60.28877       45.12224       39.11112
H         61.04628       45.65480       40.65098
H         59.83104       43.64738       41.80531
H         59.05796       43.30356       40.25647
N         63.60859       45.40857       39.36637
C         64.64474       45.96730       38.53005
H         65.51610       45.27963       38.49465
H         64.25608       46.14509       37.50556
H         64.97711       46.94006       38.95243
H         63.40561       45.86947       40.25525
Ca        55.94957       46.58527       42.62903
O         56.93508       45.51518       44.93635
H         56.38190       45.07547       45.62553
H         57.26633       44.76296       44.38874

Ca 1.70



