%chk=loop2.cluster220.chk
%nprocshared=48
%mem=10GB
%nosave
#b3lyp/svp scf=(tight,noincore) Test 
#IOP(5/87=12) Density=Current Pop=(MK,readradii) iop(6/33=2) iop(6/42=6)

loop2.cluster220 

   -2  1 
C         47.80044       45.38755       17.79813
C         48.31013       45.69970       16.41969
O         48.07468       44.92746       15.50093
H         46.71700       45.15210       17.76843
H         48.35969       44.52197       18.21318
H         47.95056       46.25344       18.47771
N         49.08578       46.80138       16.22161
C         49.69948       47.12116       14.93584
C         48.68894       47.69446       13.94840
O         47.57093       48.00478       14.32792
C         50.85653       48.11828       15.19876
C         51.75112       48.41029       14.02844
O         52.27841       47.49629       13.41438
O         52.04103       49.68527       13.70588
H         49.33895       47.36723       17.04629
H         50.14143       46.18336       14.52563
H         51.50828       47.66583       15.97425
H         50.44610       49.07055       15.60500
N         49.04708       47.85260       12.64343
C         48.22300       48.47637       11.60889
C         46.86713       47.81897       11.45096
O         46.81829       46.59669       11.43617
C         48.94803       48.34433       10.26765
H         49.97622       47.51175       12.36493
H         48.13471       49.55048       11.81896
H         48.35550       48.81272        9.45379
H         49.93958       48.83968       10.32243
H         49.09978       47.26784       10.02907
N         45.71195       48.52470       11.23609
C         45.58993       49.99014       11.17212
C         45.97464       50.65971       12.48267
O         45.40631       50.34037       13.51515
C         44.15325       50.44798       10.79062
C         43.04726       49.80233       11.59137
O         42.69117       48.66153       11.33948
O         42.38774       50.50734       12.52720
H         44.87177       47.95985       11.06619
H         46.25566       50.37827       10.36822
H         43.94816       50.26621        9.71331
H         44.10637       51.55251       10.93185
N         46.93446       51.63315       12.49361
C         47.39161       52.28106       13.71047
C         47.20724       53.78203       13.60145
O         48.05721       54.42856       13.00951
H         47.37168       51.91808       11.60351
H         48.47513       52.07000       13.82858
H         46.91289       51.85928       14.61436
N         46.10056       54.42533       14.07633
C         45.02217       53.74236       14.77349
C         45.46716       53.33869       16.16523
O         46.49638       53.79504       16.65013
C         43.75060       54.61465       14.78109
C         43.30196       54.83717       13.35308
N         43.45710       56.04349       12.76028
O         42.83518       53.90466       12.71434
H         46.01269       55.43809       13.89826
H         44.76660       52.81722       14.21058
H         43.98703       55.58072       15.27629
H         42.91378       54.14149       15.34252
H         43.89056       56.82678       13.26953
H         43.18335       56.17812       11.77539
N         44.76966       52.38506       16.81833
C         45.22015       51.81495       18.08272
C         44.34085       50.70617       18.64101
O         44.53763       50.34905       19.79274
H         43.92050       52.06702       16.35108
H         45.24457       52.63429       18.83409
H         46.25022       51.40675       17.97811
N         43.32596       50.14329       17.91544
C         42.34860       49.24884       18.49614
C         42.16331       48.01126       17.65161
O         42.66730       47.92239       16.54237
C         41.00491       50.01281       18.59622
C         41.08304       51.07803       19.69814
O         40.71844       50.60366       17.34989
H         43.16644       50.38508       16.93855
H         42.66087       48.90668       19.50640
H         40.18678       49.31103       18.86621
H         40.06169       51.33648       17.47592
H         41.31903       50.59494       20.66951
H         41.85838       51.83616       19.46238
H         40.10190       51.58851       19.79393
N         41.41401       47.00284       18.16164
C         41.11594       45.77795       17.43583
C         39.86723       45.90871       16.58214
O         39.02472       46.75611       16.83786
C         40.91720       44.56864       18.40471
C         42.28492       44.06499       18.90406
C         39.94435       44.88434       19.56954
C         42.17372       42.88573       19.86389
H         41.06682       47.12158       19.11788
H         41.95905       45.54006       16.76010
H         40.46715       43.73325       17.82112
H         42.84761       44.88334       19.39969
H         42.86761       43.72969       18.01844
H         39.02010       45.37831       19.20404
H         39.64092       43.95460       20.08925
H         40.42137       45.53047       20.33673
H         41.71015       43.20936       20.81858
H         41.56252       42.07649       19.41248
H         43.18875       42.50056       20.08855
N         39.64553       44.96008       15.62679
C         38.36981       44.74775       14.95515
C         38.38267       43.38163       14.28109
O         39.24883       43.10561       13.46335
C         37.92473       45.89077       14.02148
C         38.86591       46.28605       12.92365
O         39.50173       47.47196       13.00548
O         38.88222       45.66085       11.87533
H         40.39150       44.27294       15.46305
H         37.59328       44.69963       15.74912
H         37.74221       46.78976       14.64240
H         36.94695       45.61540       13.56863
N         37.45428       42.45418       14.65317
C         37.43533       41.07413       14.17621
C         38.71753       40.34268       14.58603
O         39.01414       40.29748       15.76792
C         36.24329       40.33559       14.83350
C         36.22926       38.83568       14.60854
C         36.55368       37.97754       15.67627
C         35.88957       38.28102       13.36271
C         36.53464       36.59288       15.50454
C         35.85919       36.88830       13.19987
C         36.18050       36.04711       14.27034
H         36.72884       42.74224       15.32694
H         37.27896       41.06922       13.08115
H         35.27640       40.77728       14.50770
H         36.32378       40.51393       15.92793
H         36.83141       38.38422       16.64073
H         35.63455       38.92124       12.52803
H         36.79065       35.94373       16.33239
H         35.58264       36.45841       12.24588
H         36.15486       34.97190       14.14529
N         39.47384       39.66977       13.66178
C         40.55780       38.76596       14.03526
C         41.83631       39.42555       14.51680
O         42.79988       38.69987       14.74456
C         40.75354       37.94393       12.75013
C         40.35362       38.90357       11.64499
C         39.16266       39.62679       12.25224
H         40.23615       38.05920       14.83120
H         41.74925       37.46500       12.62775
H         39.98286       37.14072       12.75053
H         41.17743       39.63937       11.52507
H         40.13688       38.43081       10.66176
H         39.07466       40.63192       11.78377
H         38.22274       39.04869       12.11904
N         41.94657       40.76646       14.73359
C         43.20183       41.36588       15.18659
C         43.60775       40.92831       16.58927
O         44.74181       41.18197       16.96739
C         43.13722       42.89672       15.10795
C         42.97680       43.32020       13.63948
C         42.77435       44.77760       13.44430
O         42.66583       45.61157       14.48390
O         42.60160       45.20859       12.31586
H         41.13586       41.37555       14.54617
H         44.00553       41.02938       14.49275
H         44.07056       43.35431       15.50424
H         42.29306       43.24062       15.73738
H         42.08452       42.83651       13.19275
H         43.87567       43.00646       13.07150
N         42.75723       40.22758       17.39653
C         43.17772       39.68670       18.67336
H         44.07223       40.20339       19.08094
H         42.35241       39.77242       19.40942
H         43.41088       38.61015       18.53760
H         41.80427       40.00890       17.08027
Ca        41.55339       47.42754       13.89466
O         44.57644       47.37022       14.31612
H         45.16455       47.99689       13.83958
H         45.18976       46.77909       14.81911
O         40.07390       49.65404       14.59155
H         39.81630       50.43802       14.04763
H         39.56875       49.74968       15.43416

Ca 1.70



