%chk=loop2.cluster213.chk
%nprocshared=48
%mem=10GB
%nosave
#b3lyp/svp scf=(tight,noincore) Test 
#IOP(5/87=12) Density=Current Pop=(MK,readradii) iop(6/33=2) iop(6/42=6)

loop2.cluster213 

   -2  1 
C         59.07332       47.74545       11.73327
C         60.43678       47.27812       11.32785
O         60.62458       46.08288       11.15038
H         58.32214       46.93978       11.58312
H         59.09871       48.02208       12.80613
H         58.77086       48.62645       11.12782
N         61.44860       48.18392       11.17058
C         62.81235       47.81786       10.77265
C         62.94627       47.74267        9.24302
O         63.80408       48.39167        8.65880
C         63.82154       48.80051       11.42347
C         63.71107       50.24505       10.97605
O         64.56365       51.15748       11.47758
O         62.86923       50.59692       10.16314
H         61.23360       49.17411       11.35659
H         63.04290       46.81251       11.19178
H         64.85214       48.44959       11.20735
H         63.67484       48.77433       12.52606
N         62.07897       46.97095        8.53855
C         61.96907       46.94668        7.08750
C         60.54158       46.53811        6.74338
O         60.08417       45.53264        7.27171
C         62.92855       45.92283        6.47990
H         61.37189       46.45987        9.06240
H         62.22103       47.93932        6.66556
H         62.74000       44.90950        6.89481
H         62.77137       45.88501        5.37800
H         63.98250       46.20822        6.67092
N         59.75799       47.21162        5.85834
C         60.19952       48.34575        5.04458
C         60.39763       49.61922        5.85109
O         60.00569       49.67854        7.00852
C         59.22409       48.54292        3.85243
C         57.76684       48.62419        4.25463
O         56.80725       48.23442        3.39834
O         57.46361       48.81350        5.41508
H         58.82403       46.81027        5.68802
H         61.18208       48.07984        4.59875
H         59.32214       47.62833        3.22808
H         59.51801       49.39965        3.21263
N         61.09940       50.65474        5.30422
C         61.43149       51.86053        6.04609
C         61.32752       53.08346        5.16734
O         62.35142       53.70836        4.92614
H         61.50450       50.53507        4.36203
H         62.49636       51.76975        6.35697
H         60.82346       51.98019        6.96525
N         60.15997       53.49909        4.60210
C         58.85688       52.86926        4.80786
C         58.29384       53.20423        6.17691
O         58.17318       54.37618        6.50831
C         57.87619       53.37676        3.73357
C         58.31923       52.93576        2.35948
N         58.26689       51.62910        2.01072
O         58.72286       53.76262        1.55640
H         60.21352       54.30682        3.95954
H         58.92708       51.77135        4.67341
H         57.83190       54.48713        3.78562
H         56.85344       52.98297        3.91318
H         57.89197       50.93120        2.66650
H         58.57592       51.32098        1.07719
N         57.89484       52.20966        7.01719
C         57.26242       52.47754        8.29971
C         55.78414       52.83086        8.17796
O         55.22437       53.34040        9.13783
H         58.03162       51.23175        6.73225
H         57.84299       53.24199        8.86035
H         57.29606       51.55456        8.91861
N         55.06123       52.45712        7.07658
C         53.60722       52.60877        6.95657
C         52.94130       51.23215        6.95396
O         53.23070       50.40117        6.10611
C         53.22369       53.43173        5.69829
C         53.05776       54.91022        6.04956
O         54.19661       53.28598        4.69706
H         55.54912       51.97246        6.31002
H         53.19465       53.13851        7.84257
H         52.23413       53.08346        5.32040
H         53.85425       53.72864        3.87878
H         52.21283       55.02251        6.76533
H         53.98408       55.31570        6.50376
H         52.80330       55.48493        5.13471
N         52.05433       50.93027        7.94450
C         51.48521       49.60346        8.16496
C         50.42532       49.18333        7.14245
O         49.44712       49.88711        6.93389
C         50.95025       49.43873        9.62300
C         52.09746       49.31445       10.66829
C         49.87096       50.46573       10.03300
C         52.93344       50.55602       10.98003
H         51.86938       51.65867        8.64244
H         52.31213       48.86791        8.10644
H         50.46911       48.43548        9.66882
H         52.78981       48.50873       10.33545
H         51.64750       48.97726       11.62612
H         49.60735       50.33444       11.10228
H         50.18842       51.51948        9.91115
H         48.95011       50.31604        9.43366
H         53.69010       50.27812       11.74676
H         53.48808       50.92445       10.09552
H         52.29793       51.36103       11.40250
N         50.53260       47.95183        6.56297
C         49.54561       47.31630        5.68556
C         48.94371       46.11682        6.40009
O         49.27852       45.89899        7.54328
C         50.19102       46.93945        4.32152
C         51.62189       46.45443        4.36745
O         52.56401       47.30944        4.82728
O         51.93607       45.37017        3.90087
H         51.34005       47.37653        6.83330
H         48.68254       47.98657        5.48082
H         50.24229       47.86770        3.71724
H         49.54130       46.23209        3.76482
N         48.00460       45.31893        5.81441
C         47.28608       44.24459        6.50557
C         48.18998       43.32438        7.34426
O         47.99043       43.21548        8.54142
C         46.05414       44.84174        7.22773
C         45.05061       43.83118        7.76016
C         44.56670       43.94756        9.07596
C         44.53926       42.80674        6.93477
C         43.58668       43.06688        9.55002
C         43.57410       41.92014        7.42141
C         43.09271       42.05427        8.72422
H         47.72112       45.52362        4.84428
H         46.84308       43.60630        5.72190
H         45.50374       45.42894        6.45994
H         46.37204       45.55158        8.02172
H         44.92588       44.73626        9.72442
H         44.87673       42.69032        5.91517
H         43.20197       43.17551       10.55584
H         43.18974       41.13536        6.78172
H         42.33146       41.37719        9.09107
N         49.18071       42.59028        6.73997
C         50.02523       41.62817        7.44413
C         50.86623       42.26707        8.53616
O         50.92544       41.73582        9.63927
C         50.93782       41.08137        6.32790
C         50.12858       41.30622        5.06294
C         49.44382       42.63657        5.32483
H         49.38674       40.80661        7.83954
H         51.84282       41.71627        6.22775
H         51.25452       40.02457        6.48019
H         50.70975       41.27498        4.11624
H         49.33532       40.52709        5.02734
H         50.10378       43.50868        5.12695
H         48.53567       42.67322        4.68815
N         51.55036       43.42264        8.29288
C         52.38910       44.08754        9.29072
C         51.56431       44.44633       10.52617
O         51.99141       44.17458       11.63674
C         53.06960       45.34721        8.70557
C         53.96456       45.03346        7.48430
C         54.65698       46.26785        6.99873
O         55.83363       46.23324        6.67595
O         53.97827       47.42095        6.91301
H         51.44361       43.85663        7.36106
H         53.21493       43.40845        9.59477
H         53.70214       45.81213        9.49337
H         52.29327       46.08456        8.41234
H         53.34593       44.65269        6.64777
H         54.72848       44.26206        7.72602
N         50.33555       45.01012       10.37783
C         49.42204       45.31178       11.45786
H         48.47102       44.76010       11.28225
H         49.82194       45.02436       12.44874
H         49.18994       46.39808       11.44688
H         50.00715       45.19132        9.44271
Ca        54.72070       47.87491        4.26268
O         55.38251       50.67354        3.68745
H         55.21812       50.83426        2.72600
H         54.57267       51.01891        4.12918
O         55.62104       49.74092        7.54810
H         55.36715       48.95211        8.07864
H         56.58355       49.61392        7.38943
O         55.03100       46.14236        2.35854
H         54.83738       45.23016        2.68689
H         54.42419       46.28892        1.59216
O         52.90348       48.86771        2.63572
H         52.64450       48.19595        1.95726
H         52.53941       49.72995        2.32514

Ca 1.70



