%chk=loop3.cluster183.chk
%nprocshared=48
%mem=10GB
%nosave
#b3lyp/svp scf=(tight,noincore) Test 
#IOP(5/87=12) Density=Current Pop=(MK,readradii) iop(6/33=2) iop(6/42=6)

loop3.cluster183 

   0  1 
C         94.55235       58.32759       25.56050
C         95.19689       56.98680       25.75167
O         94.81492       56.26351       26.66068
H         93.69450       58.45621       26.25510
H         95.29669       59.12595       25.76852
H         94.19052       58.42917       24.51706
N         96.20234       56.59208       24.91894
C         96.93477       55.34181       25.09219
C         98.40668       55.65193       25.36873
O         98.88909       56.70511       24.98276
C         96.72238       54.40619       23.87714
C         97.56888       53.16518       24.00138
O         97.41622       52.42626       24.96063
O         98.61277       52.95629       23.17007
H         96.47535       57.21636       24.14376
H         96.55265       54.79866       25.98419
H         96.97567       54.93849       22.93759
H         95.64682       54.11276       23.82843
N         99.11306       54.82572       26.19566
C        100.43024       55.15277       26.75734
C        101.64180       54.95914       25.84847
O        102.72542       55.36629       26.25203
C        100.63269       54.38533       28.07495
C        100.68821       52.85174       27.90744
C        100.80993       52.19635       29.28444
C        100.77433       50.66146       29.24487
N        101.97393       50.08497       28.63664
H         98.59760       54.03304       26.59343
H        100.40870       56.23232       27.03182
H         99.78647       54.65249       28.74701
H        101.56953       54.73588       28.56119
H        101.54232       52.57043       27.25715
H         99.75788       52.47196       27.43846
H         99.94078       52.52952       29.89270
H        101.73944       52.53898       29.78874
H         99.86386       50.30769       28.70992
H        100.71004       50.30836       30.29656
H        102.83154       50.47446       29.09154
H        101.96105       49.05054       28.79174
H        101.99677       50.26920       27.60869
N        101.55048       54.40953       24.60529
C        102.64880       54.50239       23.64060
C        102.38077       55.65918       22.66826
O        103.22332       55.94453       21.83028
C        102.89601       53.14970       22.92616
C        101.68574       52.58177       22.24035
O        101.11448       53.21660       21.37561
O        101.24313       51.35143       22.56089
H        100.63161       54.08291       24.27318
H        103.60418       54.76438       24.14863
H        103.24775       52.40153       23.66867
H        103.70203       53.27979       22.17094
N        101.22198       56.38595       22.76264
C        100.82901       57.50714       21.92186
C        100.41846       57.14087       20.50556
O         99.77464       57.95393       19.85660
H        100.56825       56.16319       23.50737
H        101.59076       58.31369       21.93381
H         99.91051       57.92725       22.39280
N        100.78129       55.95972       19.94077
C        100.50279       55.60004       18.56014
C         99.11162       54.99234       18.46420
O         98.80411       54.09526       19.23395
C        101.58991       54.61315       18.10674
C        101.54752       54.35032       16.62926
N        101.32246       53.10682       16.15548
O        101.74397       55.26993       15.84903
H        101.38127       55.33144       20.46897
H        100.61146       56.50034       17.91620
H        101.49927       53.68529       18.69810
H        102.59235       55.04320       18.33199
H        101.14316       52.32449       16.79446
H        101.32863       52.92912       15.14311
N         98.19698       55.46365       17.57194
C         96.79531       55.05370       17.60099
C         96.48673       53.60251       17.24043
O         95.33697       53.20780       17.36975
H         98.47915       56.20912       16.91736
H         96.22113       55.69565       16.89909
H         96.41308       55.25431       18.62441
N         97.43465       52.77078       16.72783
C         97.15221       51.38874       16.32324
C         96.94329       50.42913       17.48740
O         97.61327       50.54095       18.50345
C         98.30191       50.85754       15.45852
C         98.15354       51.30847       14.02855
C         97.39655       50.52067       13.14504
C         98.75420       52.48535       13.55977
C         97.26862       50.88540       11.80563
C         98.62985       52.84758       12.21426
C         97.89386       52.04131       11.33133
O         97.78558       52.36720       10.02806
H         98.37282       53.15259       16.54939
H         96.23063       51.35185       15.69484
H         98.28526       49.74546       15.43512
H         99.28881       51.11799       15.89362
H         96.91223       49.61773       13.49823
H         99.31841       53.11641       14.22674
H         96.69150       50.26202       11.13456
H         99.10918       53.74988       11.85695
H         98.23165       53.14253        9.65971
N         96.07048       49.38137       17.32734
C         95.75604       48.35779       18.32909
C         96.89969       47.37659       18.58856
O         98.04037       47.63422       18.23877
C         95.08304       49.01933       19.57884
C         94.91759       48.09686       20.81254
C         93.71663       49.57196       19.12363
C         94.37036       48.83245       22.03811
H         95.56318       49.31227       16.43227
H         94.99808       47.69067       17.86201
H         95.73264       49.84694       19.92245
H         95.92350       47.72798       21.10522
H         94.25366       47.23465       20.59010
H         93.83763       50.27269       18.27202
H         93.06828       48.72946       18.79191
H         93.19354       50.12311       19.92621
H         93.30616       49.10814       21.89748
H         94.43820       48.17911       22.92900
H         94.96849       49.74261       22.24641
N         96.59343       46.17132       19.16193
C         97.55068       45.11618       19.47916
C         97.04817       43.70959       19.10115
O         97.78183       42.75719       19.33750
C         97.73994       45.13623       21.00111
O         96.49726       44.94892       21.62685
H         95.62267       46.01496       19.44678
H         98.53140       45.31013       18.98972
H         98.15815       46.12568       21.29022
H         98.44339       44.33256       21.31193
H         96.64546       45.06226       22.59881
N         95.80088       43.49626       18.57078
C         95.16926       42.19154       18.35622
C         95.68611       41.03709       19.22853
O         96.23269       40.08857       18.68649
C         95.21066       41.85694       16.86306
H         95.22634       44.30540       18.30253
H         94.09301       42.29289       18.61894
H         94.61565       40.93843       16.66682
H         94.77130       42.68877       16.27336
H         96.25764       41.69136       16.53170
N         95.50272       40.99635       20.58423
C         94.77804       41.99759       21.35328
C         93.32185       41.58831       21.51804
O         93.07917       40.39661       21.66644
C         95.37117       42.07466       22.76909
H         95.81424       40.14477       21.08152
H         94.92662       42.98394       20.89735
H         95.28993       41.08837       23.27941
H         96.43953       42.36774       22.73625
H         94.82127       42.81928       23.38381
N         92.29104       42.47689       21.65641
C         92.38890       43.93407       21.54305
C         91.42997       44.46591       20.47987
O         91.72794       45.49245       19.88109
C         92.13939       44.55769       22.92921
C         92.60848       46.01373       23.03176
C         92.48611       46.49844       24.44875
O         91.38598       46.65002       24.95464
O         93.59469       46.73911       25.17619
H         91.37940       42.08001       21.91798
H         93.39948       44.24608       21.24492
H         92.76259       43.99491       23.65824
H         91.07467       44.44472       23.22575
H         92.05013       46.69099       22.34990
H         93.68300       46.03253       22.74983
N         90.25729       43.82037       20.18999
C         89.33867       44.25238       19.15976
H         88.37266       44.52607       19.63201
H         89.71955       45.11502       18.57682
H         89.15938       43.40764       18.45929
H         89.98052       42.98253       20.71397
Ca        98.59602       52.10665       21.06912
O         96.07374       52.54984       20.40641
H         95.36091       51.97991       20.78475
H         95.65271       53.43003       20.25370
O         97.67962       50.06058       22.55946
H         97.59030       49.07848       22.60582
H         97.78692       50.35030       23.49772
O        100.75087       51.30833       19.02095
H        101.71727       51.46794       18.87961
H        100.62921       50.36612       18.75403
O         99.68516       49.13185       20.75378
H        100.50137       48.86793       21.24609
H         99.68286       48.55088       19.95393

Ca 1.70



