%chk=loop4.cluster44.chk
%nprocshared=48
%mem=10GB
%nosave
#b3lyp/svp scf=(tight,noincore) Test 
#IOP(5/87=12) Density=Current Pop=(MK,readradii) iop(6/33=2) iop(6/42=6)

loop4.cluster44 

   -3  1 
C         67.02576       29.64823       49.04284
C         67.53287       29.41718       50.44082
O         68.43873       30.10939       50.88430
H         66.14989       30.33067       49.04804
H         67.82825       30.04836       48.38912
H         66.70305       28.67904       48.60121
N         66.98307       28.42471       51.19072
C         67.42597       28.01817       52.51977
C         67.32179       29.13907       53.54538
O         68.28959       29.44382       54.22246
C         68.82159       27.35077       52.49783
C         68.95298       26.36640       51.36918
O         69.90156       26.44280       50.60448
O         68.01489       25.41910       51.17816
H         66.20511       27.88638       50.77658
H         66.72180       27.22135       52.84661
H         68.94973       26.80958       53.46197
H         69.63769       28.10020       52.41086
N         66.12704       29.77105       53.71567
C         65.89849       30.80902       54.72136
C         64.78549       30.28555       55.63259
O         63.76701       29.87223       55.10249
C         65.41459       32.13101       54.04161
C         66.29217       32.52065       52.82475
C         65.42765       33.28331       55.07712
C         65.74626       33.71693       52.03593
H         65.33842       29.49533       53.11537
H         66.83308       31.03335       55.27498
H         64.37694       31.96393       53.67719
H         66.35106       31.68013       52.10071
H         67.32016       32.74022       53.18111
H         66.47849       33.56923       55.31646
H         64.90174       34.18100       54.70122
H         64.91746       33.00748       56.01815
H         66.49652       34.02678       51.28020
H         64.80770       33.43477       51.51154
H         65.54626       34.59734       52.67517
N         64.84781       30.28183       56.99642
C         65.94500       30.81012       57.79572
C         67.16699       29.92043       57.69993
O         68.27880       30.41450       57.80849
C         65.48192       30.97945       59.25597
C         64.23679       31.83397       59.30842
O         63.07930       31.31066       59.75754
O         64.26033       32.98431       58.89938
H         64.01595       29.92050       57.49330
H         66.20829       31.82593       57.43405
H         66.27657       31.45698       59.86820
H         65.25193       29.98112       59.68845
N         67.02028       28.59466       57.41680
C         68.13634       27.74326       57.07059
C         68.70890       27.04415       58.26534
O         67.97041       26.63644       59.15196
H         66.07669       28.19970       57.31017
H         68.92143       28.31368       56.52741
H         67.77323       26.97799       56.35307
N         70.04212       26.78298       58.29094
C         70.71273       26.10667       59.39094
C         71.97678       26.84322       59.84824
O         72.61130       26.37220       60.78071
C         71.06567       24.64702       58.99903
C         71.94188       24.44762       57.78251
O         72.13996       25.34734       56.98522
O         72.45961       23.23093       57.53682
H         70.59075       27.04570       57.46166
H         70.03149       26.03642       60.27005
H         70.13360       24.07002       58.82047
H         71.57273       24.18175       59.87225
N         72.42598       27.98286       59.23223
C         73.70112       28.59537       59.59144
C         74.90465       27.76181       59.16013
O         76.02323       28.11043       59.51630
H         71.87933       28.42865       58.48576
H         73.70936       28.80130       60.68205
H         73.79872       29.56820       59.06102
N         74.75344       26.69839       58.31582
C         75.83215       25.92302       57.71459
C         76.64894       26.82614       56.82140
O         77.85501       26.94537       56.96458
C         76.60423       25.10200       58.75870
C         75.64214       24.08893       59.40976
C         76.28692       23.23186       60.46324
N         75.64682       22.12670       60.90825
O         77.38490       23.52159       60.91525
H         73.81414       26.47051       58.00216
H         75.37699       25.18471       57.01551
H         77.07657       25.76309       59.51294
H         77.40448       24.52291       58.24296
H         75.26690       23.42148       58.60271
H         74.76505       24.59651       59.86814
H         74.73603       21.85459       60.50834
H         76.07844       21.52704       61.62596
N         75.97497       27.52829       55.86969
C         76.59756       28.49918       54.98190
C         77.37078       27.82730       53.88106
O         76.96227       26.77374       53.41144
C         75.53311       29.45352       54.36186
C         74.47507       28.73947       53.48903
C         74.85418       30.26636       55.47256
H         74.95584       27.41166       55.83554
H         77.28793       29.13736       55.57664
H         76.05860       30.18119       53.70413
H         74.95067       28.24526       52.61672
H         73.89332       27.97914       54.04787
H         73.75077       29.48144       53.09285
H         74.32438       29.61132       56.19581
H         75.61950       30.85474       56.02314
H         74.12275       30.97593       55.03473
N         78.43333       28.47272       53.32160
C         79.08137       27.97304       52.12106
C         78.37891       28.56087       50.91005
O         77.81345       29.64162       51.00941
C         80.58287       28.32524       52.15746
C         81.44649       27.68857       51.08556
N         81.17199       26.46406       50.56887
O         82.44811       28.28034       50.71229
H         78.70180       29.40012       53.68391
H         78.96173       26.87334       52.11787
H         81.00988       28.02558       53.13687
H         80.68640       29.43441       52.09692
H         80.36531       25.90861       50.87764
H         81.78132       26.06165       49.84321
N         78.36850       27.88806       49.72586
C         77.62693       28.35392       48.56547
C         76.94394       27.15754       47.92368
O         77.63339       26.27818       47.42424
C         78.55127       29.03603       47.53391
C         79.18369       30.33623       47.99562
C         80.26670       30.34162       48.89028
C         78.72132       31.55913       47.48098
C         80.88487       31.54583       49.25278
C         79.33413       32.76089       47.84674
C         80.42548       32.75740       48.72575
O         81.04465       33.90966       49.05606
H         78.85023       26.98376       49.65857
H         76.85204       29.09421       48.86631
H         77.91611       29.25977       46.65004
H         79.35357       28.34662       47.18962
H         80.64771       29.41506       49.27902
H         77.88781       31.58060       46.79163
H         81.73222       31.53712       49.92872
H         78.96774       33.69310       47.43651
H         80.77775       34.75798       48.67243
N         75.58352       27.06632       47.89292
C         74.88610       25.93612       47.29257
C         74.48089       26.25558       45.84594
O         74.98256       25.56238       44.97059
C         73.83496       25.37486       48.28552
C         72.97525       24.23548       47.71518
C         72.33316       23.45496       48.84033
O         71.00642       23.47190       49.10489
O         73.05146       22.77111       49.55047
H         75.02491       27.81582       48.32139
H         75.59743       25.08395       47.18206
H         73.15319       26.14597       48.69319
H         74.41934       25.00140       49.15629
H         73.60210       23.51829       47.14039
H         72.24209       24.66950       47.01650
N         73.63397       27.25832       45.45470
C         72.88733       28.12830       46.34965
C         73.66758       29.35816       46.77354
O         74.72427       29.64205       46.22460
C         71.59722       28.62697       45.65761
C         70.64019       27.53595       45.16450
C         70.19812       26.63278       46.25959
O         70.19689       25.42708       46.07843
O         69.76661       27.14637       47.42902
H         73.44866       27.34226       44.44227
H         72.59494       27.56292       47.24311
H         71.86347       29.25491       44.77971
H         71.03119       29.26425       46.37033
H         71.08395       26.93256       44.34208
H         69.73840       28.04536       44.76961
N         73.15996       30.14827       47.76435
C         73.77876       31.37656       48.21451
H         74.69774       31.62886       47.64729
H         73.04979       32.20697       48.09457
H         74.03108       31.28479       49.29159
H         72.28606       29.86085       48.22985
Ca        69.21416       24.65716       48.40460
O         68.15347       22.61049       49.90262
H         67.56054       22.16679       50.55689
H         68.57055       21.87403       49.38863

Ca 1.70



