%chk=loop4.cluster97.chk
%nprocshared=48
%mem=10GB
%nosave
#b3lyp/svp scf=(tight,noincore) Test 
#IOP(5/87=12) Density=Current Pop=(MK,readradii) iop(6/33=2) iop(6/42=6)

loop4.cluster97 

   -3  1 
C         99.17168       82.98617       36.51299
C        100.55568       82.58965       36.95977
O        100.84999       81.41052       36.97545
H         98.41229       82.54733       37.19247
H         99.04930       84.08925       36.50890
H         98.98043       82.61971       35.47963
N        101.47379       83.54572       37.29479
C        102.87343       83.31585       37.69722
C        103.75345       82.62432       36.66234
O        104.94261       82.47188       36.91728
C        103.03058       82.63204       39.07983
C        102.65434       81.17804       39.16511
O        101.75996       80.77189       40.08483
O        103.20895       80.35216       38.45702
H        101.16736       84.52793       37.24755
H        103.31258       84.32835       37.83524
H        102.46231       83.21025       39.83653
H        104.10657       82.69198       39.35959
N        103.26058       82.19078       35.47354
C        104.06517       81.44105       34.52642
C        104.34843       80.00058       35.07000
O        103.18773       79.24496       34.98061
C        103.42117       81.46925       33.09343
C        103.47120       82.91788       32.54210
C        101.94558       80.97434       33.03844
C        103.16715       83.01148       31.04683
H        102.29823       82.41563       35.22504
H        105.05310       81.95244       34.43029
H        104.05460       80.82021       32.44988
H        104.48157       83.35936       32.68578
H        102.74877       83.54337       33.11049
H        101.24722       81.68339       33.53043
H        101.60327       80.85665       31.99760
H        101.76836       79.99355       33.48630
H        103.08370       84.07883       30.75787
H        103.99712       82.55096       30.47180
H        102.21630       82.51828       30.77112
N        105.35350       79.35140       34.21769
C        105.68808       77.96013       34.60176
C        106.03996       77.78762       36.08688
O        106.62697       78.69476       36.65813
C        106.81729       77.40085       33.70076
C        108.15977       78.07343       33.87685
O        108.31484       79.24854       33.58747
O        109.21216       77.35950       34.31769
H        106.17895       79.96936       34.09186
H        104.79431       77.35135       34.36830
H        106.50827       77.47731       32.63620
H        106.95368       76.32393       33.92576
N        105.78307       76.62661       36.77724
C        105.09622       75.47594       36.20498
C        103.62342       75.77268       35.98653
O        103.12730       76.70580       36.59329
H        106.11062       76.54928       37.75262
H        105.15398       74.61373       36.90145
H        105.62967       75.18351       35.28573
N        102.84249       75.07131       35.11408
C        103.33221       73.98118       34.28596
C        102.41729       73.82026       33.08744
O        101.29429       73.36671       33.25819
C        103.38994       72.67606       35.11059
C        103.83616       71.46809       34.33084
O        104.66662       71.57207       33.44224
O        103.39700       70.24657       34.69115
H        101.87084       75.39457       34.97557
H        104.33690       74.23085       33.91503
H        102.37518       72.46601       35.51665
H        104.06050       72.79144       35.98319
N        102.79291       74.18787       31.83165
C        104.03850       74.89011       31.51679
C        104.09441       75.15903       30.04250
O        105.05594       74.77649       29.38977
H        102.11317       74.01046       31.07550
H        104.92406       74.27982       31.79776
H        104.06330       75.85972       32.06089
N        103.00515       75.69760       29.43112
C        102.84047       75.69549       27.99365
C        102.27990       77.02646       27.59777
O        101.23434       77.09596       26.96981
C        101.92980       74.50004       27.62333
C        102.65175       73.17832       27.95901
C        101.88594       71.92961       27.63922
N        102.48490       70.72826       27.81058
O        100.73617       71.98685       27.22950
H        102.18880       75.96169       30.00535
H        103.81338       75.57617       27.46635
H        101.70916       74.51446       26.53467
H        100.96927       74.57061       28.18499
H        102.89024       73.12131       29.03889
H        103.60219       73.15458       27.38493
H        103.45951       70.67646       28.14629
H        101.98362       69.85538       27.59477
N        102.94421       78.15272       27.96733
C        102.42616       79.47366       27.67248
C        101.14752       79.69996       28.44713
O        101.03413       79.30613       29.59952
C        103.45251       80.59607       27.96111
C        102.87595       81.97071       27.55419
C        104.74529       80.35878       27.16344
H        103.82824       78.05929       28.48736
H        102.21728       79.52444       26.57971
H        103.69885       80.60350       29.04506
H        102.56849       81.95836       26.48380
H        101.98879       82.23647       28.16552
H        103.62579       82.77524       27.69264
H        105.20230       79.37779       27.39987
H        104.54115       80.39097       26.07140
H        105.49295       81.13746       27.41769
N        100.15795       80.39787       27.84678
C         98.88142       80.69341       28.46987
C         97.95348       79.48072       28.40113
O         96.90578       79.51698       29.03385
C         98.34157       81.95463       27.76650
C         96.90843       82.29418       28.02866
N         96.02528       82.26277       27.00208
O         96.53953       82.60403       29.15084
H        100.33871       80.75686       26.89924
H         99.03614       80.94532       29.54641
H         98.44341       81.79994       26.67344
H         98.99322       82.81905       28.03417
H         96.33538       81.99171       26.05513
H         95.03594       82.49832       27.14921
N         98.26816       78.36173       27.67334
C         97.49176       77.12836       27.77292
C         97.76500       76.43558       29.11043
O         98.73359       76.75923       29.78215
C         97.78557       76.14148       26.63031
C         97.02114       76.38769       25.34449
C         97.42072       77.35595       24.40576
C         95.91557       75.56650       25.05172
C         96.75147       77.45428       23.17313
C         95.24449       75.67873       23.83621
C         95.67146       76.60228       22.88262
O         95.05032       76.64930       21.68594
H         99.09821       78.36819       27.06766
H         96.40549       77.37606       27.74453
H         97.45621       75.14161       26.98188
H         98.87347       76.03077       26.43973
H         98.26765       77.99997       24.60422
H         95.58156       74.82385       25.76555
H         97.08288       78.17467       22.43548
H         94.40737       75.02436       23.62573
H         95.36231       77.21851       20.96887
N         96.82885       75.56557       29.60587
C         96.80790       75.04000       30.98129
C         96.62991       76.14346       32.02674
O         96.52859       75.82148       33.20760
C         98.02061       74.13342       31.32274
C         98.20554       72.94557       30.36073
C         97.04155       71.98690       30.31258
O         96.14452       71.93385       31.31742
O         96.95546       71.19177       29.39081
H         96.02253       75.33047       29.00910
H         95.89581       74.41241       31.06919
H         97.88615       73.72861       32.35147
H         98.95386       74.73384       31.32412
H         99.10175       72.36067       30.66549
H         98.39777       73.34327       29.34318
N         96.55394       77.46099       31.67889
C         96.38378       78.55693       32.60800
C         95.10168       79.33269       32.29929
O         94.75581       80.21450       33.06747
C         97.61132       79.48136       32.47854
C         98.93406       78.77687       32.83342
C         99.18340       78.62945       34.31164
O        100.35924       78.11089       34.71677
O         98.39171       79.06588       35.13270
H         96.62561       77.72940       30.69792
H         96.30124       78.18240       33.65129
H         97.51048       80.40467       33.08765
H         97.67739       79.80077       31.41781
H         99.75021       79.41418       32.44678
H         99.02601       77.79591       32.31988
N         94.33628       79.04993       31.19530
C         93.07594       79.71384       30.95055
H         92.37258       79.47281       31.77406
H         93.21327       80.81185       30.87139
H         92.63965       79.33766       29.99877
H         94.62571       78.34406       30.51040
Ca       101.54023       78.87888       36.49420
O        101.53802       77.24425       39.22132
H        101.33066       77.74962       40.04683
H        101.22162       76.32426       39.40561
O         99.43106       79.60504       38.54387
H         99.22749       80.41796       39.07128
H         98.76232       78.93860       38.83751
O         99.54688       76.68963       36.99959
H         98.71449       77.06867       36.62445
H         99.28003       75.79469       37.32158

Ca 1.70



