%chk=loop2.cluster147.chk
%nprocshared=48
%mem=10GB
%nosave
#b3lyp/svp scf=(tight,noincore) Test 
#IOP(5/87=12) Density=Current Pop=(MK,readradii) iop(6/33=2) iop(6/42=6)

loop2.cluster147 

   -2  1 
C         19.65353       -3.26959       51.01069
C         19.95312       -2.16407       51.97833
O         20.38154       -1.09977       51.55257
H         18.86218       -2.95947       50.29783
H         20.57950       -3.51045       50.44678
H         19.32178       -4.18934       51.53781
N         19.75237       -2.34545       53.31440
C         20.12734       -1.35853       54.31791
C         18.91355       -0.68949       54.94123
O         19.07659        0.03240       55.91099
C         21.01728       -2.03614       55.38037
C         22.28559       -2.63272       54.81746
O         23.09663       -3.34048       55.62505
O         22.58835       -2.48501       53.64315
H         19.33207       -3.23154       53.63948
H         20.71079       -0.52101       53.87389
H         20.43118       -2.84475       55.86471
H         21.31183       -1.29861       56.15896
N         17.69090       -0.75645       54.32730
C         16.62915        0.18064       54.67469
C         15.24762       -0.42897       54.43504
O         15.13847       -1.31173       53.60095
C         16.81812        1.40779       53.77327
H         17.60440       -1.27086       53.44356
H         16.74857        0.47558       55.73089
H         17.80759        1.87120       53.98073
H         16.80674        1.10052       52.70295
H         16.03681        2.17269       53.93581
N         14.11235        0.03287       55.05024
C         14.05200        1.10810       56.03063
C         13.24320        0.65747       57.24115
O         12.20920        0.03739       57.05050
C         13.39107        2.36640       55.41039
C         13.67169        3.59580       56.27366
O         14.49188        3.53578       57.17362
O         12.97918        4.73734       56.15112
H         13.22124       -0.40527       54.77729
H         15.05724        1.41268       56.34755
H         12.30184        2.17397       55.29869
H         13.79094        2.55571       54.39157
N         13.64788        0.92933       58.51240
C         12.87734        0.55875       59.69383
C         13.55011       -0.58909       60.40847
O         14.77326       -0.60923       60.43578
H         14.53930        1.42743       58.65887
H         11.81664        0.35643       59.46896
H         12.85564        1.43580       60.37919
N         12.86636       -1.56961       61.07438
C         11.40876       -1.67657       61.17188
C         10.84031       -2.11441       59.83286
O         11.27862       -3.12074       59.29390
C         11.05510       -2.69303       62.28248
C          9.57547       -2.79183       62.58060
N          9.10053       -2.47732       63.81106
O          8.80439       -3.18048       61.71642
H         13.43163       -2.26819       61.58154
H         10.98948       -0.69835       61.50301
H         11.57725       -2.36519       63.20851
H         11.44072       -3.69951       62.01506
H          9.73497       -2.15264       64.55586
H          8.09504       -2.56498       64.02120
N          9.88708       -1.36533       59.21856
C          9.42757       -1.65260       57.86730
C          8.68618       -0.45093       57.33594
O          7.57575       -0.57467       56.84165
H          9.54579       -0.51702       59.69584
H          8.81921       -2.58278       57.83197
H         10.31709       -1.79766       57.21434
N          9.29084        0.76494       57.41004
C          8.71905        2.02332       56.96534
C          9.38562        2.40576       55.66203
O          9.98710        3.45978       55.54497
C          8.83573        3.06755       58.11538
C          7.71696        2.83806       59.13822
O         10.09370        2.95247       58.74067
H         10.23015        0.80312       57.81334
H          7.65058        1.91655       56.68188
H          8.70938        4.09901       57.71607
H         10.09907        3.54336       59.53949
H          7.84553        3.51250       60.01145
H          6.73965        3.07873       58.66731
H          7.70953        1.78587       59.48931
N          9.24887        1.55388       54.60857
C          9.68083        1.82718       53.24198
C          8.65901        2.69583       52.51552
O          7.47860        2.37526       52.52411
C          9.94663        0.50611       52.44860
C         11.19513       -0.19716       53.03072
C          8.73436       -0.45915       52.43344
C         11.68835       -1.39919       52.22348
H          8.72768        0.68989       54.78453
H         10.65200        2.35574       53.25685
H         10.17521        0.80574       51.40136
H         10.96757       -0.52547       54.06673
H         12.03949        0.52721       53.06633
H          8.89847       -1.29597       51.73101
H          8.55672       -0.91419       53.43032
H          7.80730        0.04375       52.10631
H         12.07524       -1.06918       51.24477
H         12.51736       -1.89359       52.77028
H         10.89744       -2.15419       52.06108
N          9.05958        3.82671       51.86236
C          8.16854        4.70783       51.13525
C          8.71535        5.01228       49.76095
O          9.84663        5.45956       49.63185
C          8.00213        6.04913       51.84505
C          7.57590        5.83301       53.25775
O          6.43689        6.09125       53.60602
O          8.44792        5.31980       54.14182
H         10.03277        4.09900       51.89364
H          7.14985        4.26185       51.07257
H          7.22217        6.61653       51.28692
H          8.93613        6.64943       51.83338
N          7.89553        4.89692       48.69804
C          8.23527        5.31867       47.34406
C          9.40316        4.49865       46.77606
O          9.24628        3.29688       46.66997
C          6.93652        5.12114       46.54033
C          6.97266        5.45862       45.09273
C          6.56248        4.49907       44.15476
C          7.34800        6.73816       44.66780
C          6.51973        4.82140       42.80143
C          7.31434        7.05460       43.30977
C          6.89552        6.09872       42.37731
H          6.93713        4.56108       48.88684
H          8.47622        6.40027       47.35798
H          6.15340        5.76231       47.00500
H          6.61069        4.06288       46.66500
H          6.25288        3.51054       44.47697
H          7.65521        7.48724       45.38737
H          6.18516        4.08267       42.08562
H          7.60150        8.04385       42.98307
H          6.85601        6.34902       41.32764
N         10.60852        5.06440       46.40002
C         11.71088        4.26515       45.85812
C         12.30693        3.27531       46.83273
O         12.99808        2.36342       46.38516
C         12.76072        5.32076       45.47394
C         12.45538        6.46295       46.43349
C         10.92703        6.47417       46.44335
H         11.38256        3.70537       44.95668
H         13.81768        4.96709       45.48327
H         12.52674        5.69640       44.45550
H         12.80018        6.16542       47.45040
H         12.93158        7.43296       46.17270
H         10.58259        7.01352       47.34910
H         10.54038        6.95077       45.51219
N         12.14012        3.39217       48.17419
C         12.73335        2.45033       49.11340
C         12.16122        1.05611       48.93699
O         12.82757        0.09938       49.29149
C         12.50125        2.91114       50.55624
C         13.23066        4.24311       50.82046
C         12.91299        4.84625       52.13672
O         13.48089        5.86631       52.49134
O         11.96724        4.32421       52.91239
H         11.59747        4.19019       48.53329
H         13.83231        2.40738       48.93346
H         12.87682        2.15470       51.28156
H         11.40754        2.99648       50.68993
H         12.95897        5.01415       50.07347
H         14.32167        4.05605       50.77935
N         10.92051        0.87138       48.40235
C         10.34728       -0.44617       48.24499
H          9.34668       -0.36161       47.76888
H         10.99786       -1.07112       47.59838
H         10.22831       -0.92475       49.23934
H         10.36024        1.67906       48.11208
Ca        11.56578        5.50972       54.66440
O         11.37528        5.86337       57.82043
H         11.03825        4.96324       58.02774
H         12.32388        5.81709       58.09767
O          9.42506        7.47186       56.17900
H          9.08125        8.07753       56.88109
H          8.65385        6.88908       55.97568
O         12.92466        7.90278       55.54518
H         13.50737        7.42381       56.18618
H         13.54534        8.45366       55.00622
O         11.08304        7.93812       53.07821
H         11.05180        7.70815       52.11602
H         11.16151        8.92432       53.09833

Ca 1.70



