%chk=loop1.cluster56.chk
%nprocshared=48
%mem=10GB
%nosave
#b3lyp/svp scf=(tight,noincore) Test 
#IOP(5/87=12) Density=Current Pop=(MK,readradii) iop(6/33=2) iop(6/42=6)

loop1.cluster56 

   0  1 
C         77.88721       82.98070       88.77014
C         79.15742       83.76802       88.93028
O         79.10274       84.98493       89.01437
H         77.03352       83.64825       88.52562
H         77.99779       82.23740       87.95174
H         77.66565       82.44278       89.71570
N         80.35610       83.12050       88.92110
C         81.64433       83.80598       89.03867
C         82.32748       84.01454       87.69286
O         83.44561       84.51665       87.67956
C         82.58706       83.07833       90.03380
C         82.87480       81.63644       89.71278
O         81.90522       80.70640       89.82186
O         84.01168       81.29090       89.43419
H         80.34895       82.11037       88.73215
H         81.50215       84.81290       89.44778
H         82.17199       83.11676       91.06077
H         83.55412       83.63078       90.05075
N         81.71390       83.70607       86.51524
C         82.41593       83.74142       85.23371
C         82.11830       85.00688       84.46259
O         80.95005       85.24092       84.20152
C         81.93464       82.56507       84.36779
C         82.09745       81.18687       85.01428
C         83.55524       80.90360       85.38594
C         83.80089       79.45415       85.81997
N         83.02531       79.07666       87.00040
H         80.74711       83.34864       86.53069
H         83.50137       83.64182       85.40335
H         82.48213       82.58787       83.40224
H         80.85281       82.69369       84.14723
H         81.74359       80.44169       84.27103
H         81.45203       81.11004       85.91685
H         83.87000       81.58358       86.20728
H         84.19381       81.10108       84.49841
H         84.88422       79.36352       86.05291
H         83.56266       78.76236       84.98366
H         83.16794       79.77660       87.75366
H         82.00771       79.00750       86.77383
H         83.35875       78.14822       87.34540
N         83.07729       85.88254       84.02396
C         84.52594       85.71610       84.16124
C         85.18293       87.08113       83.97908
O         85.78528       87.32829       82.94273
C         85.04090       84.66961       83.13901
C         86.54133       84.51143       83.17663
O         87.20091       84.68481       82.16321
O         87.16110       84.17883       84.32497
H         82.74895       86.72259       83.51903
H         84.80957       85.37418       85.17825
H         84.72997       84.96191       82.11124
H         84.59645       83.68257       83.36403
N         85.12625       88.04213       84.94608
C         84.54374       87.83655       86.26901
C         84.03830       89.14936       86.82720
O         84.66356       90.16483       86.56331
H         85.63315       88.92188       84.76748
H         85.32678       87.43541       86.94815
H         83.75646       87.08831       86.23643
N         82.97452       89.25036       87.67488
C         82.23554       88.13817       88.27846
C         81.44383       88.61032       89.50121
O         81.31899       89.80819       89.74233
C         81.31135       87.33475       87.30099
C         80.57752       88.08661       86.21692
O         80.65902       87.65115       84.93516
O         79.88378       89.03861       86.48884
H         82.76588       90.20644       88.00468
H         82.97589       87.43305       88.72079
H         80.57429       86.76750       87.90368
H         81.86943       86.54752       86.78433
N         80.92846       87.69671       90.37154
C         80.20613       88.07311       91.56532
C         78.88106       88.73629       91.26429
O         78.33571       89.36231       92.15648
H         81.09017       86.69963       90.20519
H         80.85065       88.74464       92.17571
H         79.98771       87.17413       92.18265
N         78.28871       88.62180       90.03372
C         76.99097       89.23377       89.75005
C         76.14550       88.32632       88.87576
O         76.63782       87.82191       87.88315
C         77.16805       90.63629       89.10122
C         75.86308       91.42673       89.12238
O         77.58530       90.56103       87.77119
H         78.75521       88.08494       89.28951
H         76.45827       89.41211       90.70543
H         77.90799       91.22163       89.69358
H         78.38871       90.00539       87.79116
H         75.08428       90.91393       88.52009
H         75.50695       91.54740       90.16681
H         76.03937       92.43450       88.69011
N         74.82347       88.15881       89.15510
C         73.91032       87.44569       88.26472
C         72.92613       88.45124       87.69189
O         72.13756       89.02651       88.42551
C         73.26918       86.21798       88.97172
C         72.10915       85.55560       88.18257
C         72.79039       86.51039       90.40487
C         72.40563       85.25953       86.71284
H         74.43461       88.63076       89.98163
H         74.46895       87.02366       87.40224
H         74.08557       85.46642       89.06693
H         71.18893       86.18048       88.22444
H         71.89015       84.59174       88.69005
H         72.01224       87.30041       90.41878
H         72.37501       85.58769       90.86214
H         73.64051       86.82034       91.04837
H         71.62333       84.58035       86.31268
H         72.36181       86.19150       86.11814
H         73.39938       84.78478       86.58704
N         72.99773       88.75282       86.35975
C         72.18915       89.78012       85.70860
C         71.46215       89.26409       84.45050
O         70.56035       89.94619       83.98235
C         73.15541       90.94897       85.37642
C         72.50991       92.13197       84.65869
O         74.22407       90.47443       84.59384
H         73.73611       88.30059       85.80490
H         71.41024       90.15154       86.41143
H         73.54294       91.31770       86.35899
H         75.04819       90.92606       84.91800
H         71.69231       92.55989       85.27302
H         73.27999       92.91308       84.48346
H         72.12064       91.82702       83.66628
N         71.82854       88.10216       83.82377
C         71.25101       87.60093       82.57161
C         71.52862       88.53710       81.39351
O         71.93143       89.67404       81.59543
C         69.74077       87.23767       82.70860
C         69.52096       86.28584       83.89347
O         69.30074       86.61053       81.52912
H         72.58917       87.53789       84.21691
H         71.79514       86.65806       82.34030
H         69.14024       88.16186       82.86835
H         68.34217       86.37745       81.64491
H         68.45327       85.98303       83.95144
H         70.14188       85.37356       83.76937
H         69.78444       86.78421       84.84896
N         71.36446       88.08514       80.11442
C         71.47328       88.93694       78.93713
C         72.71964       88.81603       78.03253
O         72.80846       89.70382       77.19321
C         70.18528       88.77543       78.06729
C         69.05435       89.77343       78.38082
C         68.49649       89.66079       79.79807
C         67.32304       90.62480       80.05864
N         67.74970       92.02270       80.19663
H         71.05755       87.12042       79.97837
H         71.54444       89.99910       79.25866
H         69.81934       87.72404       78.11294
H         70.41788       88.95732       76.99592
H         68.22519       89.56634       77.66656
H         69.42288       90.80358       78.19064
H         69.28520       89.84967       80.55419
H         68.12733       88.62275       79.92862
H         66.85875       90.30848       81.01592
H         66.54746       90.53448       79.26307
H         67.86497       92.47555       79.26202
H         67.01572       92.54464       80.73036
H         68.64224       92.09086       80.73778
N         73.72552       87.87426       78.02159
C         73.93928       86.64167       78.77617
C         72.72494       85.73991       78.75730
O         72.35029       85.18961       79.78390
C         74.71602       86.91308       80.09550
C         75.41989       85.66518       80.67664
C         76.37355       86.00697       81.81463
O         76.11137       85.63764       82.94566
O         77.54292       86.65876       81.59113
H         74.43979       88.02897       77.29042
H         74.68178       86.08010       78.16351
H         74.06117       87.38154       80.85795
H         75.52310       87.63358       79.84026
H         76.00094       85.13241       79.88890
H         74.63705       84.96774       81.04182
N         72.04786       85.56394       77.58331
C         70.82307       84.79903       77.46920
H         70.01779       85.46628       77.09190
H         70.96582       83.97809       76.73674
H         70.49235       84.37162       78.43758
H         72.39871       86.02473       76.72971
Ca        79.02724       87.12582       83.33710
O         78.05733       89.47437       82.45419
H         77.12213       89.18936       82.61143
H         77.98873       90.35280       82.00995
O         80.89991       88.35085       81.64120
H         80.37535       88.75640       80.90636
H         81.25870       87.51216       81.25788
O         78.26051       85.33456       85.68008
H         78.31121       85.81539       86.54288
H         78.83879       84.54166       85.80345
O         77.13306       88.15252       84.99739
H         76.34974       87.71508       85.40923
H         77.69034       88.44819       85.75535
O         80.23278       85.08953       81.29314
H         80.42795       85.06487       80.32392
H         80.61431       84.24659       81.64390
O         78.49691       83.71512       83.17650
H         77.58969       83.39811       83.40868
H         78.93594       82.92792       82.76844

Ca 1.70



