%chk=loop1.cluster106.chk
%nprocshared=48
%mem=10GB
%nosave
#b3lyp/svp scf=(tight,noincore) Test 
#IOP(5/87=12) Density=Current Pop=(MK,readradii) iop(6/33=2) iop(6/42=6)

loop1.cluster106 

   0  1 
C         90.16308       13.34925       75.23080
C         89.15315       14.05273       74.37729
O         88.04080       13.55621       74.26012
H         91.10330       13.93132       75.30864
H         89.74137       13.22107       76.25127
H         90.38514       12.34759       74.80704
N         89.46770       15.21692       73.73137
C         88.47161       15.96430       72.97144
C         88.58995       15.72580       71.48408
O         89.63134       15.30291       70.99863
C         88.51227       17.46553       73.29899
C         88.30696       17.71374       74.76615
O         89.14622       18.32448       75.40844
O         87.19399       17.26524       75.37766
H         90.43093       15.58239       73.78529
H         87.46000       15.59245       73.24606
H         87.70457       17.98328       72.73812
H         89.48752       17.89577       72.97590
N         87.47290       15.87296       70.71730
C         87.39723       15.48509       69.31227
C         88.16646       16.38827       68.36973
O         88.28444       16.03982       67.20827
C         85.91795       15.40137       68.89134
C         85.26947       14.19962       69.59293
C         83.78865       14.05849       69.26219
C         83.25753       12.74512       69.85055
N         81.82626       12.60153       69.60413
H         86.60653       16.17364       71.19205
H         87.84312       14.46959       69.20335
H         85.83125       15.23911       67.79560
H         85.40054       16.35587       69.14364
H         85.37547       14.27533       70.69773
H         85.80480       13.28614       69.25244
H         83.64123       14.04937       68.16097
H         83.23973       14.92430       69.69503
H         83.44571       12.72402       70.94692
H         83.79869       11.88686       69.38854
H         81.31481       13.43248       69.98010
H         81.64863       12.50770       68.57792
H         81.48325       11.74301       70.09217
N         88.76324       17.52792       68.80435
C         89.64100       18.32821       67.95609
C         90.44117       19.25470       68.84012
O         89.87881       20.00742       69.62210
C         88.90207       19.15999       66.87612
C         89.82738       20.22022       66.28788
O         90.78098       19.95770       65.36706
O         89.80163       21.33904       66.77528
H         88.65884       17.79461       69.79262
H         90.35837       17.65907       67.43497
H         88.08094       19.70574       67.38856
H         88.43028       18.54073       66.08768
N         91.78478       19.29605       68.67717
C         92.59867       20.25443       69.38808
C         94.04377       20.16466       68.97675
O         94.45915       19.19346       68.36402
H         92.21271       18.68424       67.96981
H         92.53323       20.08521       70.48430
H         92.21812       21.27206       69.15464
N         94.87223       21.19228       69.28433
C         96.31035       21.13355       69.04563
C         97.01794       21.69875       70.25946
O         96.37071       22.31060       71.09851
C         96.67002       21.88508       67.75652
C         95.99521       21.25438       66.56562
O         95.05432       21.93490       65.88374
O         96.28370       20.11719       66.22558
H         94.46587       22.03441       69.71683
H         96.62744       20.07068       68.94646
H         97.76840       21.87022       67.58620
H         96.33912       22.94061       67.85371
N         98.33298       21.42282       70.48689
C         98.95225       21.78217       71.75430
C         99.04389       20.55538       72.62282
O        100.09107       20.30810       73.19905
H         98.85129       20.82897       69.82251
H         98.33760       22.52044       72.30861
H         99.94251       22.25813       71.58698
N         97.97735       19.70387       72.71956
C         98.04655       18.44676       73.45055
C         98.19438       18.62364       74.95236
O         97.77737       19.62791       75.51528
C         96.89442       17.47132       73.09198
C         95.48926       18.04046       73.34704
O         97.01590       17.11764       71.73756
H         97.13572       19.90490       72.16636
H         98.97276       17.93584       73.10301
H         97.03369       16.55651       73.71623
H         96.37200       16.38169       71.56639
H         94.73117       17.25485       73.13915
H         95.37426       18.37235       74.39774
H         95.26942       18.88846       72.66665
N         98.88789       17.67135       75.63678
C         99.27261       17.75711       77.04083
C        100.60303       18.47814       77.21609
O        101.08229       18.56959       78.33577
C         99.28633       16.32675       77.68416
C        100.20781       15.26003       77.00043
C         97.85080       15.78099       77.71879
C        101.71153       15.49347       77.14501
H         99.29598       16.91672       75.07455
H         98.53603       18.37433       77.60619
H         99.59820       16.43171       78.74693
H         99.96771       15.13233       75.92610
H        100.00925       14.27203       77.46683
H         97.15989       16.52757       78.16561
H         97.49406       15.52661       76.69837
H         97.81150       14.86912       78.35271
H        102.25011       14.65402       76.65593
H        102.04985       16.42503       76.65512
H        101.99026       15.50520       78.21930
N        101.23508       19.04693       76.14726
C        102.51256       19.73696       76.23995
C        103.45607       19.09654       75.24002
O        103.08109       18.94233       74.08711
C        102.35121       21.23495       75.89933
C        101.31588       21.91708       76.80939
O        103.60684       21.85237       76.05319
H        100.79665       19.00981       75.22238
H        102.93392       19.68042       77.26797
H        102.01397       21.33637       74.84380
H        103.49126       22.82455       75.89511
H        101.21706       22.98690       76.52562
H        100.31625       21.44813       76.69197
H        101.62711       21.85705       77.87342
N        104.71792       18.74183       75.60932
C        105.66610       18.13807       74.66659
C        106.20771       16.79677       75.14705
O        106.88899       16.12711       74.37937
C        106.82618       19.11907       74.38820
C        107.67683       19.40801       75.64872
O        106.30796       20.29710       73.80756
H        105.02317       18.95702       76.56736
H        105.15894       17.93561       73.69824
H        107.50485       18.65475       73.64087
H        106.47519       21.07492       74.40089
H        108.52635       20.06875       75.38046
H        107.07956       19.91450       76.43568
H        108.09273       18.46873       76.07005
N        105.98782       16.35963       76.41593
C        106.53261       15.11954       76.94273
C        105.94204       13.92793       76.23980
O        104.72607       13.81839       76.15776
C        106.20754       15.04824       78.44757
C        106.82978       13.86410       79.21019
C        106.57874       14.07881       80.72033
C        107.41897       13.19734       81.65650
N        107.10346       11.78087       81.53800
H        105.44845       16.94860       77.06275
H        107.64342       15.13145       76.84383
H        105.10533       15.05307       78.59976
H        106.62908       15.97788       78.88885
H        107.92343       13.85611       79.01468
H        106.40246       12.89542       78.86298
H        105.49420       13.96923       80.94040
H        106.87971       15.11786       80.97216
H        107.22939       13.51742       82.70533
H        108.49759       13.36237       81.43884
H        106.12090       11.59717       81.84333
H        107.23000       11.49171       80.55082
H        107.76200       11.23401       82.13999
N        106.75534       12.93128       75.80440
C        106.21385       11.65508       75.36292
C        105.64874       11.77956       73.95280
O        106.18685       12.55381       73.17358
C        107.27727       10.54358       75.45533
C        107.96673       10.41202       76.83841
C        107.09393        9.98259       77.98786
O        105.88739        9.85110       77.86326
O        107.67306        9.68633       79.16475
H        107.77320       13.03636       75.92821
H        105.41364       11.38107       76.07283
H        108.07048       10.75056       74.70720
H        106.81004        9.56684       75.20560
H        108.48271       11.35314       77.12505
H        108.74935        9.63485       76.73484
N        104.54607       11.09008       73.53789
C        103.87139       10.09553       74.34527
H        102.96280        9.74034       73.81480
H        104.54058        9.22333       74.50184
H        103.54777       10.51464       75.31848
H        104.17793       11.27163       72.59088
Ca        91.10655       18.44426       63.72406
O         90.11923       16.23910       64.72171
H         89.30524       16.62338       65.12781
H         90.54827       15.70760       65.43515
O         90.93266       21.34482       62.90117
H         91.17615       21.74576       63.77197
H         90.84623       22.12106       62.29600
O         90.39575       19.15352       60.65911
H         90.42177       18.59953       59.83886
H         90.10352       20.04645       60.34810
O         90.47513       16.33002       61.60187
H         90.80599       15.71575       60.89990
H         89.52355       16.48214       61.37366
O         88.34569       18.93455       63.26282
H         88.00421       19.78468       63.63752
H         87.75652       18.23562       63.64242
O         93.32566       19.56178       62.18638
H         93.26778       20.25949       61.48652
H         94.29159       19.48391       62.38717

Ca 1.70



