%chk=loop4.cluster61.chk
%nprocshared=48
%mem=10GB
%nosave
#b3lyp/svp scf=(tight,noincore) Test 
#IOP(5/87=12) Density=Current Pop=(MK,readradii) iop(6/33=2) iop(6/42=6)

loop4.cluster61 

   -3  1 
C         77.15445       35.74388       68.18778
C         78.17414       34.94331       68.94251
O         79.28815       34.79089       68.46591
H         76.22417       35.87284       68.78220
H         77.57480       36.75757       68.00735
H         76.91066       35.26437       67.22102
N         77.87509       34.47248       70.18430
C         78.87910       33.93596       71.09658
C         79.91582       34.98654       71.40476
O         81.02359       34.65740       71.81830
C         79.45130       32.58116       70.69393
C         78.34314       31.59069       70.53691
O         77.47539       31.73564       69.50903
O         78.25328       30.64821       71.30727
H         76.92535       34.61522       70.55899
H         78.36600       33.76103       72.07059
H         80.14339       32.23704       71.49507
H         80.03040       32.64351       69.75369
N         79.52486       36.28641       71.43316
C         80.22114       37.31487       72.15843
C         79.25777       37.61007       73.28836
O         78.16428       38.09370       73.01373
C         80.51038       38.54180       71.24831
C         81.58294       38.20944       70.17477
C         80.89898       39.79142       72.06039
C         83.01591       38.08344       70.71694
H         78.58169       36.53379       71.08905
H         81.17666       36.93348       72.54900
H         79.56600       38.78994       70.71167
H         81.59493       39.01662       69.41089
H         81.30165       37.26615       69.65805
H         81.09975       40.64535       71.37899
H         80.06985       40.09191       72.73447
H         81.79247       39.60014       72.68952
H         83.70271       37.80164       69.89260
H         83.36636       39.05903       71.11639
H         83.09983       37.31755       71.51269
N         79.51156       37.27658       74.57787
C         80.78575       36.75970       75.06650
C         80.95121       35.25760       74.87081
O         82.06281       34.82330       74.60351
C         80.94647       37.15184       76.53828
C         80.92497       38.65821       76.65473
O         79.75810       39.32872       76.57763
O         81.97403       39.28122       76.65432
H         78.76950       37.46592       75.26814
H         81.63720       37.28708       74.58043
H         81.92819       36.77541       76.89886
H         80.14665       36.70524       77.16794
N         79.90017       34.39985       75.02382
C         80.01850       32.95035       74.91024
C         80.94458       32.37635       75.96116
O         80.82634       32.71120       77.13121
H         78.96680       34.78713       75.22052
H         80.37704       32.67544       73.89178
H         79.01618       32.49564       75.04166
N         81.91061       31.50103       75.57873
C         82.99166       31.02561       76.43229
C         84.32796       31.50721       75.84860
O         85.37531       31.09813       76.33034
C         82.91301       29.47937       76.59386
C         82.95876       28.63518       75.34014
O         82.90433       27.29500       75.44580
O         83.01567       29.13844       74.23412
H         81.92307       31.20749       74.59288
H         82.91437       31.44180       77.46353
H         81.95851       29.23472       77.10916
H         83.74126       29.14886       77.25904
N         84.35423       32.41752       74.81845
C         85.56903       32.89712       74.17820
C         86.22556       31.86522       73.27422
O         87.23756       32.17561       72.66298
H         83.47704       32.82065       74.47291
H         86.27188       33.28262       74.94347
H         85.28578       33.74861       73.51711
N         85.65093       30.64352       73.08179
C         86.13218       29.60351       72.18222
C         86.37643       30.12507       70.79456
O         87.36085       29.77239       70.15761
C         87.27872       28.79054       72.79927
C         86.78126       28.15442       74.10930
C         87.73979       27.17467       74.72141
N         87.27651       26.25173       75.59556
O         88.92365       27.18737       74.41794
H         84.76597       30.44965       73.54470
H         85.28541       28.89192       72.05217
H         88.17774       29.42111       72.96700
H         87.54050       27.96980       72.09254
H         85.85265       27.59179       73.86998
H         86.52193       28.92756       74.86514
H         86.27152       26.21080       75.82565
H         87.91308       25.55741       76.01118
N         85.47793       30.99169       70.26329
C         85.60210       31.50850       68.91569
C         85.32587       30.41065       67.91014
O         84.74880       29.38896       68.25654
C         84.66700       32.72955       68.69226
C         83.17300       32.38091       68.87086
C         85.06495       33.87302       69.64148
H         84.70799       31.31389       70.86103
H         86.65203       31.85867       68.77846
H         84.81353       33.09412       67.65127
H         82.87173       31.58874       68.15561
H         82.93777       32.02483       69.89458
H         82.54271       33.27477       68.68684
H         86.14052       34.12058       69.50910
H         84.46913       34.78327       69.42446
H         84.90210       33.59550       70.70447
N         85.76398       30.55530       66.63640
C         85.57895       29.53788       65.61502
C         85.31738       30.21652       64.30080
O         86.07373       31.09217       63.90531
C         86.80974       28.62325       65.54583
C         86.82380       27.75865       64.30127
N         85.79328       26.93122       64.00401
O         87.77495       27.83237       63.53816
H         86.33148       31.38653       66.40804
H         84.71062       28.88400       65.85502
H         86.81067       27.98018       66.45374
H         87.73256       29.24044       65.55525
H         84.97055       26.86389       64.61925
H         85.81430       26.37176       63.13762
N         84.24026       29.84295       63.56510
C         83.89612       30.49625       62.31607
C         82.46573       30.09214       61.99059
O         82.18821       29.55554       60.92589
C         84.94605       30.10949       61.22902
C         85.21216       31.23349       60.26818
C         85.84580       32.40005       60.73514
C         84.87075       31.12940       58.91411
C         86.10875       33.45766       59.86711
C         85.12332       32.19823       58.04643
C         85.73444       33.36941       58.52487
O         85.95845       34.41479       57.70465
H         83.62670       29.09919       63.93401
H         83.89559       31.59124       62.51465
H         84.65091       29.15867       60.73342
H         85.93572       29.89445       61.68667
H         86.14244       32.48631       61.77193
H         84.39986       30.23116       58.53603
H         86.59616       34.34973       60.24166
H         84.84210       32.11839       57.00505
H         85.65815       34.41104       56.78525
N         81.52459       30.21856       62.97465
C         80.22429       29.57446       62.91435
C         79.25212       30.36028       62.03530
O         78.67912       29.74260       61.14925
C         79.75796       29.16800       64.34517
C         78.57718       28.18122       64.33917
C         78.33297       27.56493       65.70228
O         78.36714       26.34915       65.80657
O         78.11210       28.28874       66.82320
H         81.81822       30.62306       63.87790
H         80.37838       28.57774       62.43540
H         79.51916       30.04259       64.97719
H         80.61582       28.63493       64.82147
H         78.83280       27.33261       63.65917
H         77.66987       28.67223       63.94015
N         79.04390       31.71788       62.12199
C         79.58400       32.60249       63.15565
C         80.85916       33.32897       62.76447
O         81.28897       33.27840       61.61990
C         78.55240       33.71730       63.49350
C         77.21244       33.22182       64.02974
C         77.39869       32.29864       65.19147
O         76.98032       31.15476       65.12785
O         78.05423       32.71497       66.29191
H         78.41174       32.13972       61.42301
H         79.82536       32.01685       64.05815
H         78.35461       34.33249       62.58405
H         78.97533       34.40178       64.25759
H         76.65431       32.70367       63.22239
H         76.61661       34.10435       64.35346
N         81.49850       34.06715       63.72132
C         82.65096       34.89710       63.45912
H         83.48995       34.29465       63.05882
H         82.37815       35.70879       62.75194
H         82.97604       35.37351       64.41206
H         81.13572       34.05126       64.68676
Ca        77.45316       30.23612       67.79840
O         76.91204       28.54576       69.82221
H         76.50663       27.64735       69.86826
H         76.65868       28.97699       70.67387
O         80.05609       30.60013       67.95136
H         80.80114       30.00392       67.69850
H         80.37777       31.51899       67.78047
O         75.45245       28.22866       66.93689
H         75.69871       27.26980       66.97236
H         74.46623       28.23647       66.89485

Ca 1.70



