%chk=loop3.cluster70.chk
%nprocshared=48
%mem=10GB
%nosave
#b3lyp/svp scf=(tight,noincore) Test 
#IOP(5/87=12) Density=Current Pop=(MK,readradii) iop(6/33=2) iop(6/42=6)

loop3.cluster70 

   0  1 
C         60.61884       57.53503       39.65869
C         60.42141       58.98212       39.30258
O         59.54654       59.26876       38.50519
H         61.40540       57.40731       40.43153
H         59.66549       57.14850       40.08143
H         60.88634       56.93427       38.76588
N         61.16310       59.94799       39.92738
C         60.94282       61.39798       39.85370
C         61.28980       62.08530       38.53209
O         62.23424       62.86203       38.50484
C         59.51583       61.78684       40.30042
C         59.23533       61.37487       41.71670
O         58.98969       62.31411       42.64944
O         59.22015       60.19475       42.02799
H         61.87636       59.63169       40.60227
H         61.64011       61.84957       40.59706
H         58.74545       61.34579       39.63351
H         59.41654       62.89086       40.23932
N         60.49418       61.94578       37.43690
C         60.67380       62.71716       36.20668
C         60.56408       64.22877       36.38467
O         60.97720       64.94869       35.48046
C         59.66029       62.26720       35.12116
C         58.16375       62.63060       35.35425
C         57.49824       61.98461       36.58172
C         56.00694       62.31627       36.68118
N         55.44419       61.77034       37.91791
H         59.73971       61.26983       37.47602
H         61.70209       62.49308       35.84613
H         59.75836       61.17124       34.97212
H         59.95663       62.75906       34.16837
H         57.60717       62.29775       34.45265
H         58.05612       63.73255       35.42986
H         57.96138       62.38092       37.50516
H         57.61245       60.87755       36.52871
H         55.46924       61.89743       35.80307
H         55.86730       63.41674       36.68027
H         55.59352       60.73595       37.96203
H         55.89875       62.22244       38.74568
H         54.41900       61.97053       37.94919
N         60.01455       64.79334       37.49814
C         59.91163       66.23995       37.66887
C         59.72874       66.64850       39.12144
O         59.65383       65.79189       39.99734
C         58.87790       66.84494       36.69365
C         57.50360       66.27834       36.70070
O         57.15562       65.42127       37.49472
O         56.65954       66.77035       35.77909
H         59.65349       64.17712       38.24063
H         60.89180       66.69708       37.41318
H         59.24204       66.71786       35.65745
H         58.76703       67.93687       36.86343
N         59.73759       67.96835       39.45813
C         59.77130       68.44836       40.82598
C         58.43784       69.02597       41.16622
O         57.94056       69.87230       40.43283
H         59.75106       68.67881       38.70885
H         60.57892       69.20338       40.91995
H         60.00739       67.62585       41.53714
N         57.76477       68.56309       42.25170
C         56.35056       68.82112       42.46189
C         56.09297       69.71556       43.64927
O         54.95736       70.12224       43.83214
C         55.66209       67.45012       42.63831
C         56.07828       66.53456       41.51607
N         55.73280       66.81706       40.24497
O         56.78283       65.56323       41.75242
H         58.23887       67.90642       42.89464
H         55.92479       69.34213       41.57559
H         54.55612       67.53537       42.68437
H         56.01615       67.00364       43.59601
H         55.13718       67.62817       40.02798
H         56.07652       66.22416       39.48449
N         57.09976       70.07641       44.49739
C         56.89613       70.93701       45.64472
C         55.88296       70.37353       46.60938
O         56.02279       69.24042       47.04748
H         58.05541       69.73271       44.33631
H         56.58857       71.94786       45.29992
H         57.86188       71.04191       46.18258
N         54.83955       71.15571       47.00822
C         53.82870       70.77419       47.98938
C         52.81235       69.74815       47.48619
O         51.89323       69.42701       48.22321
C         54.48320       70.32831       49.31205
C         53.65748       70.75819       50.49310
C         53.69160       72.10599       50.89210
C         52.86966       69.84514       51.20567
C         52.96084       72.53209       51.99994
C         52.12072       70.27869       52.30562
C         52.17139       71.61891       52.71158
O         51.46421       72.01905       53.78716
H         54.79094       72.11962       46.64363
H         53.25034       71.70880       48.17464
H         55.47658       70.81038       49.44587
H         54.66444       69.23101       49.28518
H         54.30283       72.82021       50.35171
H         52.82653       68.80694       50.90200
H         53.01153       73.56999       52.30562
H         51.50576       69.57235       52.84709
H         51.49952       72.93271       54.10563
N         52.92076       69.21018       46.23462
C         51.94575       68.36971       45.54823
C         50.78671       69.21531       45.02718
O         50.58552       69.24685       43.82144
C         51.53267       67.06365       46.28652
C         52.72620       66.31009       46.94253
C         50.80760       66.12879       45.28737
C         53.98435       66.16243       46.07758
H         53.74684       69.43684       45.68661
H         52.46829       68.01069       44.62926
H         50.81232       67.28858       47.10287
H         52.37299       65.30065       47.25020
H         53.03454       66.83698       47.87029
H         51.46499       65.86546       44.43046
H         50.49294       65.18495       45.78138
H         49.89454       66.61108       44.88082
H         54.70480       65.49062       46.59063
H         53.75880       65.74982       45.07515
H         54.48826       67.14389       45.96117
N         50.03013       69.98743       45.86207
C         48.98072       70.87694       45.38340
C         47.74857       70.11652       44.92820
O         46.88798       70.72407       44.30597
C         48.60835       71.87825       46.48791
O         49.74265       72.63224       46.82407
H         50.23595       70.00041       46.85874
H         49.38292       71.46224       44.52358
H         48.25451       71.31308       47.38056
H         47.80591       72.56092       46.13232
H         49.47171       73.23334       47.56483
N         47.60559       68.77584       45.17713
C         46.50413       67.97759       44.65220
C         46.48314       68.03457       43.13166
O         45.43003       67.84224       42.53809
C         45.16397       68.39013       45.28541
H         48.32183       68.28111       45.72465
H         46.66779       66.91690       44.94325
H         44.34937       67.72740       44.92138
H         45.22284       68.27824       46.38908
H         44.89163       69.43827       45.04755
N         47.63475       68.28407       42.43457
C         47.66609       68.46996       40.99454
C         48.42960       67.36287       40.30491
O         49.16639       66.62288       40.94306
C         48.30996       69.82183       40.67129
H         48.52195       68.36781       42.94295
H         46.62946       68.46192       40.59156
H         49.35946       69.83849       41.04170
H         48.32049       70.00602       39.57629
H         47.75230       70.64345       41.16846
N         48.19840       67.14705       38.98066
C         48.75598       66.05354       38.19633
C         48.63703       64.69420       38.87812
O         49.52901       63.86845       38.73106
C         50.17781       66.35606       37.68874
C         50.24716       67.69503       36.93178
C         51.49557       67.72813       36.11652
O         51.51383       67.16955       35.03126
O         52.65432       68.03941       36.70123
H         47.50625       67.75027       38.50951
H         48.12880       65.98851       37.27953
H         50.44005       65.53445       36.98298
H         50.92390       66.35214       38.51485
H         50.20499       68.54959       37.64387
H         49.39633       67.78545       36.22547
N         47.55409       64.40083       39.65381
C         47.38890       63.12448       40.32187
H         46.41308       62.68569       40.02920
H         48.18755       62.39698       40.06419
H         47.39894       63.27917       41.42132
H         46.82830       65.11672       39.80282
Ca        54.46936       67.14826       35.75971
O         53.23024       64.77112       34.17234
H         52.62001       64.46836       33.45490
H         54.11132       64.41270       33.90649
O         53.92355       67.64114       32.59091
H         53.66031       67.32499       31.69137
H         53.90576       68.62689       32.51341
O         53.86833       65.35412       37.62698
H         53.41328       65.49132       38.49110
H         54.77615       65.70812       37.78154
O         54.05458       69.99513       34.72010
H         54.12390       70.55390       33.90589
H         53.38105       70.45450       35.28074
O         56.64656       68.30288       33.63899
H         56.87344       68.77993       32.80513
H         57.37591       68.54067       34.26526
O         56.34734       64.83855       33.00462
H         56.99166       65.26710       32.39035
H         56.49720       65.28725       33.87169
O         55.82088       68.89375       37.32806
H         56.12043       69.00786       38.26172
H         56.44094       69.44010       36.78368

Ca 1.70



