%chk=loop3.cluster94.chk
%nprocshared=48
%mem=10GB
%nosave
#b3lyp/svp scf=(tight,noincore) Test 
#IOP(5/87=12) Density=Current Pop=(MK,readradii) iop(6/33=2) iop(6/42=6)

loop3.cluster94 

   0  1 
C        104.97987      -25.74236       83.30478
C        103.64146      -26.40344       83.19980
O        102.73159      -25.84215       82.60408
H        105.71798      -26.36894       82.75683
H        104.96972      -24.73075       82.84838
H        105.28647      -25.67226       84.36788
N        103.47043      -27.64197       83.73508
C        102.28518      -28.45510       83.51803
C        101.61973      -28.79547       84.85108
O        102.31253      -29.15915       85.79486
C        102.75397      -29.70712       82.76117
C        101.61175      -30.43645       82.13967
O        101.60300      -30.65099       80.93862
O        100.54646      -30.76828       82.86973
H        104.25802      -28.06594       84.25070
H        101.55722      -27.91701       82.86768
H        103.34001      -30.35906       83.44182
H        103.41577      -29.39153       81.92272
N        100.27261      -28.64051       85.01188
C         99.60997      -28.73216       86.31148
C         99.40296      -30.16163       86.83040
O         99.22244      -30.31637       88.02713
C         98.26815      -27.96972       86.27606
C         98.38605      -26.48334       85.87861
C         99.22882      -25.63323       86.84060
C         99.11542      -24.15233       86.44675
N        100.01669      -23.31259       87.23235
H         99.72184      -28.33089       84.19738
H        100.25457      -28.21951       87.05882
H         97.76189      -28.03300       87.26198
H         97.61145      -28.44745       85.52476
H         97.35409      -26.07421       85.84775
H         98.81462      -26.38210       84.85733
H        100.29121      -25.95436       86.78481
H         98.86918      -25.75875       87.88584
H         98.06409      -23.81992       86.60391
H         99.36387      -24.02803       85.36968
H         99.86186      -22.31312       86.96537
H         99.83144      -23.42682       88.25469
H        101.00875      -23.56547       87.01757
N         99.36655      -31.23760       85.98557
C         99.26452      -32.62684       86.47141
C        100.38272      -33.52900       85.93313
O        100.48066      -34.66516       86.38894
C         97.87617      -33.24278       86.15284
C         97.51597      -33.35708       84.69968
O         96.35068      -33.92937       84.34657
O         98.26267      -32.94117       83.83672
H         99.39409      -31.06456       84.98012
H         99.35352      -32.63866       87.57918
H         97.08565      -32.63920       86.64483
H         97.83937      -34.26992       86.57876
N        101.24561      -33.12304       84.95268
C        102.29266      -33.97005       84.39941
C        101.79865      -35.21460       83.67016
O        102.61519      -36.05834       83.34054
H        101.18405      -32.16929       84.59219
H        102.95987      -34.27599       85.23128
H        102.89540      -33.38466       83.67036
N        100.47739      -35.39800       83.39425
C         99.95029      -36.61966       82.79538
C        100.45778      -36.82005       81.37476
O        100.08391      -36.06256       80.49495
C         98.41213      -36.52893       82.79857
C         97.76039      -37.71197       82.15556
N         97.05755      -37.55164       81.01452
O         97.86033      -38.81845       82.66343
H         99.81707      -34.66514       83.65246
H        100.25494      -37.47753       83.43191
H         98.11280      -35.60592       82.25262
H         98.03316      -36.42998       83.83975
H         96.99644      -36.63201       80.55184
H         96.57603      -38.35116       80.59818
N        101.29861      -37.84890       81.07023
C        101.77595      -38.06339       79.71274
C        100.85500      -38.95089       78.90406
O        101.00590      -38.99920       77.69189
H        101.63323      -38.47207       81.81961
H        102.77683      -38.54432       79.73507
H        101.92158      -37.08531       79.20281
N         99.94269      -39.76304       79.51499
C         99.12233      -40.71233       78.76947
C         97.98187      -39.97526       78.07417
O         97.05890      -39.52597       78.72507
C         98.64279      -41.80245       79.73959
C         97.82316      -42.89081       79.11076
C         96.49685      -43.07825       79.52282
C         98.38077      -43.75200       78.15061
C         95.73598      -44.11885       78.99274
C         97.61783      -44.79942       77.62467
C         96.29318      -44.98813       78.05030
O         95.55274      -46.00524       77.56722
H         99.90957      -39.78453       80.54460
H         99.77341      -41.21198       78.01763
H         98.07077      -41.31305       80.55744
H         99.53565      -42.27995       80.20443
H         96.05702      -42.42161       80.26329
H         99.40721      -43.62594       77.82719
H         94.71586      -44.25624       79.32592
H         98.05778      -45.46949       76.89671
H         95.91469      -46.64181       76.93517
N         98.04561      -39.75749       76.73692
C         97.15977      -38.89123       75.95524
C         95.68830      -39.28319       75.91890
O         95.01660      -39.25172       76.94209
C         97.25993      -37.34989       76.27110
C         97.20457      -36.59113       74.90987
C         98.53508      -36.96138       77.03877
C         96.98659      -35.08380       75.00349
H         98.84484      -40.16574       76.22987
H         97.56364      -39.00747       74.92641
H         96.40076      -37.03946       76.91160
H         96.37657      -36.98528       74.28189
H         98.15800      -36.78770       74.36810
H         98.61032      -35.86728       77.18942
H         98.51854      -37.39729       78.05765
H         99.43364      -37.31074       76.49368
H         97.74513      -34.58189       75.63263
H         97.05781      -34.65169       73.98170
H         95.97195      -34.87814       75.40267
N         95.10132      -39.54515       74.71995
C         93.65600      -39.60295       74.53580
C         93.33312      -40.20906       73.17647
O         92.57969      -41.16958       73.11875
C         93.05484      -38.18111       74.68126
O         93.65468      -37.28902       73.77941
H         95.70298      -39.57795       73.88532
H         93.18967      -40.25477       75.30943
H         93.22897      -37.81670       75.71869
H         91.95742      -38.21247       74.49949
H         93.31476      -36.38379       74.00454
N         93.88927      -39.69599       72.03858
C         93.63078      -40.20656       70.69623
C         92.14162      -40.16886       70.37687
O         91.55313      -41.21511       70.13489
C         94.24565      -41.59896       70.50803
H         94.52696      -38.89200       72.11707
H         94.16226      -39.55222       69.96935
H         95.32196      -41.57392       70.78033
H         93.73217      -42.36569       71.12257
H         94.17005      -41.88894       69.43654
N         91.44104      -39.00095       70.33619
C         92.06598      -37.69308       70.44375
C         92.42183      -37.21861       69.03824
O         91.54632      -37.26545       68.18723
C         91.14415      -36.72013       71.17743
H         90.44742      -39.03956       70.06130
H         92.90495      -37.74009       71.12079
H         90.15679      -36.63826       70.68255
H         90.99811      -37.07351       72.22331
H         91.62043      -35.71566       71.22605
N         93.65690      -36.73865       68.67742
C         94.76677      -36.47937       69.59145
C         96.03798      -37.15153       69.11346
O         96.64340      -37.89149       69.87675
C         94.88085      -34.95569       69.79752
C         95.55888      -34.61090       71.13725
C         95.29107      -33.18512       71.52277
O         94.49755      -32.91861       72.58044
O         95.75842      -32.26728       70.87010
H         93.77234      -36.43650       67.69743
H         94.57321      -36.87681       70.58676
H         93.83562      -34.58350       69.89641
H         95.33618      -34.43594       68.92485
H         96.64622      -34.83470       71.12297
H         95.09169      -35.23100       71.93421
N         96.48825      -36.96631       67.84090
C         97.65693      -37.65952       67.34230
H         98.53996      -37.42309       67.97125
H         97.47807      -38.75740       67.34929
H         97.86338      -37.34555       66.29722
H         95.97726      -36.34397       67.19937
Ca        98.75278      -31.41478       81.74089
O         99.23657      -28.63901       81.60753
H         99.62791      -28.66046       80.69936
H         98.80270      -27.75543       81.68069
O         97.21130      -30.23116       83.65892
H         96.74383      -29.46127       83.25105
H         96.82703      -30.32205       84.56510
O         96.56818      -32.90552       81.13564
H         96.24116      -32.80256       82.06366
H         96.52716      -33.87623       80.95558
O         99.56108      -32.96848       79.77870
H         99.21112      -33.15533       78.87479
H         99.98322      -33.80386       80.07750
O         96.66626      -29.94281       80.59954
H         95.68602      -30.04290       80.67729
H         96.80147      -29.28530       79.87325
O         98.99266      -30.40139       78.93292
H         98.28978      -30.59943       78.26525
H         99.84745      -30.51228       78.44794

Ca 1.70



