%chk=loop2.cluster231.chk
%nprocshared=48
%mem=10GB
%nosave
#b3lyp/svp scf=(tight,noincore) Test 
#IOP(5/87=12) Density=Current Pop=(MK,readradii) iop(6/33=2) iop(6/42=6)

loop2.cluster231 

   -2  1 
C         48.29494       44.63200        3.91990
C         47.11115       45.15201        3.15048
O         46.93948       46.36152        3.10480
H         49.14427       45.33197        3.77459
H         48.06454       44.60192        5.00395
H         48.63480       43.64086        3.56489
N         46.23926       44.33708        2.48871
C         46.29050       42.86976        2.49987
C         45.98985       42.23676        3.88706
O         45.95059       43.14203        4.93692
C         45.30583       42.30070        1.45005
C         43.89239       42.79828        1.55957
O         43.10361       42.53169        0.66847
O         43.50032       43.57217        2.59262
H         45.50815       44.80302        1.92920
H         47.29948       42.54556        2.17342
H         45.28395       41.18921        1.47594
H         45.67220       42.61830        0.45215
N         46.82526       41.04715        4.16488
C         46.67830       40.21737        5.39901
C         45.32096       39.52888        5.63916
O         45.27501       38.53376        6.34913
C         47.15824       40.94247        6.65690
H         46.79553       40.41315        3.33395
H         47.41457       39.39647        5.23894
H         46.37052       41.61356        7.05683
H         47.41907       40.19656        7.44119
H         48.06999       41.53500        6.43231
N         44.18693       40.00926        5.06794
C         42.85212       39.43104        5.16658
C         42.00489       40.12107        4.11687
O         41.97462       41.33430        4.11234
C         42.23050       39.46543        6.58082
C         41.94677       40.75207        7.34179
O         42.28228       41.99899        6.93914
O         41.36801       40.64627        8.41050
H         44.27705       40.81499        4.46565
H         42.92156       38.35925        4.87983
H         42.84757       38.82194        7.24166
H         41.24244       38.96063        6.47667
N         41.44533       39.40144        3.10116
C         41.01050       39.96867        1.82634
C         39.84971       40.93885        1.87353
O         38.74798       40.58922        1.47695
H         41.45634       38.37368        3.17082
H         40.73627       39.12473        1.16115
H         41.87842       40.46410        1.34255
N         40.07479       42.22597        2.23479
C         39.05243       43.25922        2.34704
C         39.67724       44.65527        2.23083
O         39.02148       45.63232        2.56704
C         38.32970       43.04301        3.69679
C         39.25663       43.00858        4.89732
N         38.83878       42.45046        6.05458
O         40.39441       43.44682        4.81947
H         41.02571       42.47301        2.49829
H         38.30333       43.17836        1.52742
H         37.84014       42.04846        3.62903
H         37.52517       43.79195        3.86456
H         37.89476       42.04579        6.12876
H         39.47679       42.38848        6.86136
N         40.93737       44.82252        1.71663
C         41.61056       46.09552        1.64598
C         41.92076       46.64944        3.02519
O         41.78529       45.92953        4.00568
H         41.43149       44.03503        1.30735
H         40.97237       46.75469        1.04167
H         42.57881       45.98097        1.10900
N         42.34300       47.93261        3.20527
C         42.40231       48.90587        2.11295
C         43.40426       50.05684        2.38439
O         43.47057       50.97728        1.58041
C         40.94030       49.39574        1.82591
C         40.37328       50.34466        2.88497
O         40.82398       49.93478        0.53311
H         42.43185       48.25539        4.17776
H         42.76453       48.38969        1.19741
H         40.24548       48.53301        1.84413
H         41.24748       50.82654        0.52312
H         40.36307       49.84893        3.87824
H         40.97564       51.27339        2.93890
H         39.32821       50.61494        2.61809
N         44.19391       50.08074        3.51022
C         45.03121       51.20341        3.94096
C         44.20317       52.49457        3.99402
O         44.44901       53.38726        3.19689
C         46.32613       51.40407        3.09822
C         47.07217       50.07504        2.84138
C         47.24901       52.38125        3.87994
C         48.29455       50.26161        1.93875
H         44.17800       49.28305        4.15375
H         45.39823       50.95772        4.95984
H         46.04670       51.83363        2.11080
H         46.39124       49.36520        2.32606
H         47.38687       49.61776        3.80524
H         46.71923       53.29811        4.20848
H         47.62821       51.88492        4.80239
H         48.11173       52.71667        3.27549
H         49.05478       50.91666        2.41020
H         48.77165       49.27915        1.74828
H         47.98397       50.70522        0.96840
N         43.16176       52.66640        4.85195
C         42.76645       51.71852        5.87932
C         43.70236       51.68483        7.09061
O         44.28812       50.65164        7.35969
C         41.29923       51.95257        6.35390
C         40.82676       53.33930        6.77463
O         39.60989       53.46712        7.33138
O         41.48120       54.34658        6.55853
H         42.60114       53.51840        4.71725
H         42.74984       50.69689        5.44446
H         41.12442       51.25723        7.20440
H         40.61493       51.64973        5.53812
N         43.74283       52.75023        7.94081
C         44.19091       52.64975        9.32200
C         42.95234       52.47767       10.21725
O         42.01770       53.23995       10.06390
C         44.94631       53.92132        9.78355
C         44.19389       55.23930        9.67163
C         44.11232       55.91593        8.44007
C         43.60997       55.82571       10.81170
C         43.46521       57.15398        8.35410
C         42.95619       57.05968       10.71699
C         42.88913       57.72543        9.49106
H         43.22593       53.58124        7.69636
H         44.89886       51.81100        9.44590
H         45.91789       54.01999        9.25752
H         45.19182       53.74715       10.85584
H         44.56686       55.49498        7.55254
H         43.65661       55.32547       11.77081
H         43.41795       57.67564        7.40663
H         42.50762       57.50435       11.59653
H         42.39468       58.68673        9.42314
N         42.91113       51.54146       11.22951
C         43.98547       50.62890       11.55772
C         44.13427       49.52558       10.51455
O         43.32706       49.47529        9.59329
C         43.55115       50.03262       12.90868
C         42.59769       51.08625       13.46627
C         41.85420       51.54856       12.21910
H         44.91291       51.23369       11.69019
H         42.93181       49.12749       12.72913
H         44.39450       49.76768       13.58363
H         41.93586       50.72867       14.28583
H         43.20289       51.94244       13.83724
H         41.08508       50.80634       11.91368
H         41.39461       52.54568       12.39394
N         45.14093       48.60901       10.58832
C         45.33391       47.57033        9.56865
C         46.69169       46.86826        9.72657
O         46.72120       45.65329        9.85818
C         44.15765       46.53793        9.55981
C         43.91570       45.81533       10.90831
C         42.84791       44.75394       10.81716
O         41.81102       44.96519       10.20911
O         42.98892       43.60392       11.50611
H         45.82500       48.69311       11.35813
H         45.35678       48.05773        8.56822
H         44.37348       45.78880        8.76888
H         43.21046       47.04344        9.27526
H         43.59968       46.56056       11.66524
H         44.83247       45.32539       11.29338
N         47.88191       47.53966        9.72034
C         48.03116       48.96751        9.53293
H         48.92549       49.15072        8.89884
H         47.16424       49.43284        9.02480
H         48.21808       49.44817       10.51566
H         48.74342       46.99572        9.88202
Ca        43.77933       42.92727        5.55575
O         44.78723       45.65510        5.57682
H         45.77619       45.66375        5.55823
H         44.53106       46.60882        5.61598
O         42.04635       45.17534        6.86547
H         41.09354       45.30900        7.09614
H         42.47563       44.92820        7.72047

Ca 1.70



