%chk=loop1.cluster25.chk
%nprocshared=48
%mem=10GB
%nosave
#b3lyp/svp scf=(tight,noincore) Test 
#IOP(5/87=12) Density=Current Pop=(MK,readradii) iop(6/33=2) iop(6/42=6)

loop1.cluster25 

   0  1 
C         79.33515       82.78325       86.04618
C         80.69966       83.29853       86.35553
O         80.90808       84.49107       86.27898
H         78.66407       83.61096       85.73103
H         79.40233       82.03874       85.22562
H         78.92716       82.30291       86.95788
N         81.68830       82.42513       86.68679
C         83.07285       82.79940       86.98664
C         83.99523       82.61108       85.78285
O         85.20304       82.72779       85.94352
C         83.58306       81.97776       88.20241
C         83.68905       80.49048       87.99346
O         84.87518       79.88027       88.18234
O         82.70144       79.82261       87.73111
H         81.44080       81.43060       86.67565
H         83.13591       83.86199       87.30045
H         82.91237       82.15185       89.06632
H         84.59970       82.33626       88.47767
N         83.49818       82.34365       84.53898
C         84.34680       81.97602       83.40875
C         84.39393       83.09415       82.39039
O         83.33593       83.54441       81.98228
C         83.77424       80.71486       82.74430
C         83.65606       79.50551       83.68306
C         84.99345       79.07282       84.31287
C         84.92494       77.67415       84.96046
N         83.89323       77.54873       85.98881
H         82.47942       82.36460       84.38401
H         85.36452       81.73864       83.75143
H         84.40650       80.43521       81.87766
H         82.75765       80.93873       82.34818
H         83.25268       78.67258       83.07018
H         82.92652       79.73854       84.48821
H         85.31874       79.83059       85.05889
H         85.76938       79.01376       83.51818
H         85.91638       77.44644       85.41349
H         84.72811       76.92342       84.16745
H         83.84974       76.55836       86.31687
H         84.15267       78.12860       86.80438
H         82.94910       77.81426       85.62972
N         85.56009       83.63205       81.91929
C         86.90941       83.17089       82.24116
C         87.88275       84.29401       81.88629
O         88.57209       84.19650       80.88006
C         87.26156       81.87039       81.46788
C         88.61631       81.31991       81.85760
O         89.11700       80.42169       81.20107
O         89.26978       81.79123       82.93983
H         85.47842       84.43108       81.27538
H         87.02337       82.96760       83.32268
H         87.25374       82.09201       80.37794
H         86.52621       81.06486       81.64515
N         88.01532       85.40568       82.66450
C         87.40156       85.55585       83.97622
C         87.17646       87.01371       84.32549
O         88.06418       87.81616       84.06756
H         88.73875       86.08805       82.38920
H         88.14590       85.19218       84.71263
H         86.51761       84.91333       84.11931
N         86.07491       87.45794       84.99861
C         84.94440       86.60663       85.36889
C         84.13080       87.21853       86.51408
O         84.52727       88.21604       87.09448
C         84.09573       86.36092       84.09728
C         83.57934       87.64440       83.50938
O         83.21322       87.67382       82.34949
O         83.59762       88.78500       84.22504
H         86.03778       88.45911       85.24020
H         85.30635       85.64078       85.77910
H         83.26338       85.64488       84.25936
H         84.73240       85.88784       83.32928
N         82.95084       86.64291       86.86134
C         82.09784       87.12251       87.93803
C         80.87043       87.86612       87.44838
O         80.13386       88.35959       88.29538
H         82.64006       85.84927       86.31648
H         82.65566       87.82245       88.59148
H         81.79357       86.25587       88.56641
N         80.57973       88.02814       86.12235
C         79.47929       88.87271       85.66075
C         78.40150       88.05186       85.00222
O         78.70100       87.27905       84.10501
C         80.00276       89.96702       84.69490
C         78.89713       90.93541       84.25760
O         80.54476       89.38272       83.54444
H         81.16805       87.56417       85.40956
H         79.01834       89.41795       86.51163
H         80.77464       90.56697       85.23299
H         81.50644       89.59339       83.51296
H         78.10701       90.40234       83.68575
H         78.43733       91.42293       85.14210
H         79.32371       91.72070       83.59778
N         77.09780       88.22572       85.34928
C         76.00524       87.62038       84.60827
C         75.19776       88.73528       83.95753
O         74.45427       89.44640       84.62125
C         75.22310       86.58639       85.46137
C         73.95865       86.02018       84.76828
C         74.85438       87.11816       86.85394
C         74.18305       85.51808       83.34090
H         76.86628       88.88961       86.10604
H         76.42011       87.01225       83.77430
H         75.91990       85.73190       85.62710
H         73.15233       86.78418       84.74074
H         73.60323       85.16359       85.38273
H         74.29153       86.34809       87.42194
H         75.77398       87.34041       87.43629
H         74.23762       88.03585       86.78183
H         74.36352       86.37129       82.65745
H         75.04129       84.81690       83.29056
H         73.26814       84.99821       82.98688
N         75.37527       88.95808       82.62767
C         74.71883       89.98737       81.82482
C         73.87695       89.35204       80.72467
O         72.97422       89.99766       80.21240
C         75.84065       90.83442       81.15485
C         75.32470       91.95086       80.23246
O         76.66783       89.97381       80.40566
H         76.07611       88.36886       82.15784
H         74.05942       90.62589       82.45713
H         76.43622       91.29722       81.97303
H         77.44694       90.49808       80.08892
H         74.67655       92.65909       80.78464
H         76.19076       92.50834       79.81519
H         74.76726       91.53559       79.36861
N         74.21793       88.12775       80.22801
C         73.66647       87.52471       79.03651
C         74.10676       88.27438       77.79772
O         74.54101       89.41615       77.86273
C         72.13884       87.27147       79.08107
C         71.73522       86.60767       80.41032
O         71.76598       86.48730       77.96558
H         74.97119       87.59058       80.66191
H         74.16227       86.52815       78.96993
H         71.58518       88.23066       79.00886
H         71.29803       85.66089       78.25266
H         71.91245       87.30553       81.25503
H         70.65301       86.36135       80.39519
H         72.31999       85.67814       80.57615
N         74.09103       87.60883       76.62429
C         74.42752       88.17847       75.34332
C         75.83770       87.87446       74.81078
O         76.30866       88.73656       74.07973
C         73.32841       87.78988       74.32005
C         72.36208       88.91840       73.96038
C         71.52812       89.44976       75.13353
C         70.60562       90.56546       74.61968
N         69.67904       91.02029       75.65293
H         73.75173       86.65279       76.64491
H         74.43860       89.28995       75.43261
H         72.73716       86.92633       74.69093
H         73.79672       87.46067       73.36821
H         71.66067       88.51402       73.19674
H         72.94343       89.74510       73.49965
H         72.18153       89.86146       75.93408
H         70.92456       88.62049       75.56165
H         70.01399       90.19700       73.75175
H         71.23316       91.41851       74.27538
H         69.15878       91.85371       75.29405
H         68.99074       90.26105       75.86287
H         70.19458       91.28567       76.52245
N         76.59781       86.73942       74.99964
C         76.37164       85.53910       75.81096
C         75.02172       84.88434       75.66510
O         74.45735       84.43998       76.65885
C         76.83726       85.76419       77.25520
C         78.35935       85.94929       77.30941
C         78.73239       86.41105       78.66721
O         79.52168       85.65353       79.44762
O         78.30203       87.47780       79.07593
H         77.50426       86.73935       74.50442
H         77.05211       84.75901       75.40379
H         76.59885       84.89168       77.90503
H         76.31673       86.65362       77.66095
H         78.71512       86.71372       76.58829
H         78.86087       84.98182       77.07159
N         74.45180       84.75792       74.43907
C         73.17056       84.11174       74.23965
H         72.44347       84.84128       73.83066
H         73.29392       83.28507       73.51377
H         72.75014       83.69481       75.17986
H         74.93544       85.14976       73.61783
Ca        81.99887       85.69497       80.87353
O         82.38708       87.89680       79.16955
H         83.01058       88.36406       79.78036
H         81.90298       88.62026       78.70156
O         82.27727       84.04234       78.69233
H         82.81305       83.21906       78.57644
H         82.32092       84.50885       77.82127
O         80.37061       83.28709       81.03628
H         80.78463       82.93687       81.86384
H         80.70764       82.69333       80.32016
O         84.51979       85.97732       79.67707
H         85.17824       86.71011       79.76422
H         84.78031       85.48890       78.85736
O         80.74202       85.44935       83.33525
H         81.03936       84.61969       83.77962
H         79.77965       85.30209       83.16364
O         80.16005       87.66717       81.57431
H         79.34034       88.02253       81.98757
H         80.00681       87.83307       80.61972

Ca 1.70



