%chk=loop4.cluster0.chk
%nprocshared=48
%mem=10GB
%nosave
#b3lyp/svp scf=(tight,noincore) Test 
#IOP(5/87=12) Density=Current Pop=(MK,readradii) iop(6/33=2) iop(6/42=6)

loop4.cluster0 

   -3  1 
C         54.28094       56.70769       44.76048
C         53.49045       57.29023       45.88736
O         52.45690       57.89454       45.65066
H         55.23349       56.27129       45.13112
H         53.68909       55.90253       44.27884
H         54.51944       57.50113       44.02500
N         53.91454       57.11718       47.16226
C         53.16556       57.59211       48.30971
C         53.55125       59.03807       48.59314
O         54.70700       59.32904       48.86602
C         53.47646       56.64961       49.46025
C         52.84940       56.93628       50.76381
O         51.93266       57.88954       50.95872
O         53.35182       56.41680       51.72469
H         54.76585       56.55625       47.32419
H         52.07174       57.49605       48.11553
H         54.57442       56.68420       49.62861
H         53.19774       55.60800       49.18732
N         52.60374       59.99921       48.47685
C         52.84883       61.43482       48.58154
C         52.84890       61.88352       50.04098
O         53.49922       62.87226       50.35661
C         51.74947       62.17456       47.74724
C         51.80381       61.68979       46.26407
C         51.88217       63.70499       47.83652
C         50.64128       62.17523       45.40030
H         51.67390       59.69315       48.19376
H         53.83301       61.67782       48.11774
H         50.75733       61.89891       48.17124
H         51.74430       60.58405       46.22040
H         52.76841       61.98302       45.79632
H         52.86702       64.03752       47.44765
H         51.07501       64.20638       47.26601
H         51.77084       64.04567       48.88634
H         50.70571       61.68848       44.40252
H         49.67372       61.89221       45.86377
H         50.66963       63.27094       45.25253
N         52.14487       61.19497       50.98742
C         52.07603       61.59451       52.39475
C         52.97941       60.75802       53.29890
O         53.13287       61.11310       54.45785
C         50.61746       61.52079       52.93241
C         49.95807       60.19703       52.65797
O         49.88331       59.36387       53.54200
O         49.36544       59.94356       51.47665
H         51.65908       60.33854       50.69775
H         52.44048       62.63828       52.51096
H         49.97017       62.31913       52.52401
H         50.65588       61.66080       54.03665
N         53.61250       59.64476       52.84820
C         54.42760       58.80520       53.71104
C         53.62311       58.09624       54.79414
O         54.03421       58.09752       55.94599
H         53.52326       59.37354       51.86444
H         55.27320       59.38631       54.13658
H         54.87249       58.00876       53.07629
N         52.52213       57.36877       54.45187
C         51.84609       56.40994       55.33003
C         52.21015       54.97213       54.93881
O         51.65098       54.04341       55.50269
C         50.30126       56.61040       55.28872
C         49.62219       56.53938       53.94148
O         48.30727       56.80337       53.85380
O         50.24425       56.30415       52.92661
H         52.22009       57.41584       53.47736
H         52.16426       56.54369       56.38748
H         50.06562       57.60803       55.70500
H         49.81854       55.84506       55.93746
N         53.17522       54.71788       54.00481
C         53.48703       53.38969       53.50435
C         52.39282       52.79127       52.63603
O         52.37956       51.57983       52.47372
H         53.75136       55.48644       53.66682
H         53.72214       52.72610       54.36175
H         54.39173       53.44502       52.86095
N         51.44439       53.57490       52.04011
C         50.34136       53.02855       51.25137
C         50.14285       53.78912       49.95418
O         50.44688       54.97237       49.88861
C         49.01905       53.12175       52.03864
C         49.10666       52.45466       53.41618
C         47.79241       52.50690       54.15233
N         47.29716       53.68330       54.59906
O         47.18210       51.47243       54.37125
H         51.48915       54.58417       52.17904
H         50.52116       51.95513       51.02401
H         48.21877       52.62097       51.44517
H         48.74724       54.18414       52.17079
H         49.87193       52.96063       54.03866
H         49.40925       51.39689       53.27133
H         47.82147       54.55149       54.45829
H         46.40588       53.71838       55.11526
N         49.50461       53.18413       48.91601
C         49.12010       53.88287       47.69806
C         47.61698       53.79323       47.57717
O         47.08172       52.69088       47.56675
C         49.84260       53.26686       46.47168
C         49.42376       53.93020       45.14779
C         51.36062       53.43642       46.63589
H         49.25211       52.18707       49.00311
H         49.41199       54.95069       47.73270
H         49.58843       52.18630       46.40541
H         49.75693       54.98307       45.12100
H         49.89937       53.41337       44.28878
H         48.32725       53.88167       44.99700
H         51.71708       52.91622       47.54797
H         51.89782       53.01875       45.75997
H         51.61647       54.51715       46.72585
N         46.87197       54.92553       47.43066
C         45.44995       54.89370       47.16678
C         45.25228       55.12607       45.69176
O         46.22886       55.31853       44.98463
C         44.66580       55.87471       48.07518
C         44.76948       57.34476       47.73059
N         45.81085       58.08929       48.15184
O         43.85248       57.88501       47.13213
H         47.34648       55.82709       47.35322
H         45.05093       53.87801       47.38106
H         44.93254       55.71620       49.14272
H         43.59313       55.60972       47.98172
H         46.55237       57.66545       48.71901
H         45.84222       59.10157       47.95048
N         44.02706       55.06723       45.13046
C         43.82951       55.16169       43.69270
C         44.36003       56.47887       43.10480
O         44.96427       56.45024       42.04531
C         42.34301       54.97469       43.38562
C         42.12350       54.86815       41.90921
C         42.50872       53.70633       41.21833
C         41.55520       55.93781       41.21114
C         42.32323       53.62101       39.83778
C         41.38672       55.85857       39.83001
C         41.77066       54.69940       39.13786
O         41.61816       54.61842       37.80219
H         43.21400       54.89473       45.74463
H         44.38836       54.32393       43.21147
H         41.79363       55.83505       43.82428
H         41.95873       54.04465       43.86284
H         42.94561       52.86899       41.75154
H         41.26815       56.84011       41.73689
H         42.61650       52.72115       39.31139
H         40.96344       56.69991       39.29894
H         41.26537       55.35913       37.28930
N         44.21064       57.65656       43.78092
C         44.77507       58.92540       43.29787
C         46.26672       58.79734       43.05955
O         46.76648       59.23417       42.02891
C         44.55227       60.07502       44.31698
C         43.06948       60.40043       44.54205
C         42.91385       61.70397       45.27647
O         43.43386       61.85968       46.50886
O         42.32363       62.63365       44.74822
H         43.72962       57.63977       44.68570
H         44.28578       59.22303       42.34635
H         45.03728       60.98361       43.89325
H         45.04142       59.85608       45.29489
H         42.57444       59.58986       45.11732
H         42.56589       60.49281       43.55633
N         47.03929       58.21814       44.00425
C         48.48822       58.09292       43.92614
C         48.92527       57.16196       42.80207
O         49.87612       57.48166       42.10444
C         49.00532       57.64136       45.30025
C         48.66777       58.72691       46.33786
C         49.10319       58.40561       47.71670
O         49.44584       59.41584       48.52863
O         48.90390       57.30176       48.18568
H         46.55629       57.85506       44.84172
H         48.95146       59.08987       43.74404
H         50.09900       57.48639       45.27206
H         48.51249       56.69239       45.58319
H         47.58089       58.91194       46.38482
H         49.13929       59.68404       46.04897
N         48.24809       56.00975       42.54370
C         48.59598       55.13891       41.44222
H         49.62940       54.75394       41.56340
H         47.89373       54.27708       41.41239
H         48.50659       55.69266       40.48348
H         47.43847       55.76090       43.11121
Ca        49.73077       57.88964       50.66879
O         47.02864       56.20586       51.20988
H         47.09206       55.61898       52.00077
H         46.20878       56.72971       51.38386
O         46.98613       59.09713       50.75908
H         46.01032       59.11002       50.91239
H         47.15234       59.82540       50.10960

Ca 1.70



