%chk=loop4.cluster68.chk
%nprocshared=48
%mem=10GB
%nosave
#b3lyp/svp scf=(tight,noincore) Test 
#IOP(5/87=12) Density=Current Pop=(MK,readradii) iop(6/33=2) iop(6/42=6)

loop4.cluster68 

   -3  1 
C        101.15800       77.84896       33.99075
C        102.43269       77.07341       34.14626
O        102.41818       75.90063       33.84768
H        100.34517       77.32121       34.53736
H        101.25417       78.86833       34.41138
H        100.87249       77.91094       32.91898
N        103.58426       77.67983       34.58060
C        104.86955       77.01852       34.90691
C        105.53217       76.21659       33.77265
O        106.58417       75.62901       33.98717
C        104.74235       76.21676       36.24011
C        104.12677       74.83991       36.11140
O        103.70630       74.24827       37.09199
O        104.04222       74.29593       34.88625
H        103.54467       78.69802       34.73047
H        105.57279       77.84619       35.14574
H        104.13160       76.85113       36.92176
H        105.74136       76.09920       36.71043
N        104.95696       76.15686       32.54463
C        105.45878       75.37393       31.41783
C        105.40642       73.85934       31.61461
O        104.78096       73.37108       32.53668
C        104.68987       75.76571       30.11537
C        105.22639       77.11681       29.61103
C        103.14578       75.78723       30.28085
C        104.63636       77.50984       28.26404
H        104.15334       76.75494       32.38947
H        106.53935       75.60771       31.29134
H        104.93215       75.01040       29.33645
H        106.32364       77.00426       29.47190
H        105.05337       77.92790       30.35316
H        102.76860       76.63743       30.88867
H        102.64280       75.90166       29.30153
H        102.80197       74.85015       30.74988
H        103.57175       77.80161       28.37413
H        105.20141       78.37037       27.85400
H        104.71955       76.65775       27.55854
N        106.11881       73.06027       30.76498
C        106.19933       71.60161       30.88453
C        106.59671       71.16793       32.29799
O        107.52710       71.73653       32.85062
C        107.14367       70.94621       29.82330
C        108.43842       71.66104       29.50515
O        108.42548       72.67709       28.82649
O        109.61958       71.10729       29.83341
H        106.65721       73.52924       30.02993
H        105.19746       71.18796       30.67328
H        106.60255       70.84335       28.85935
H        107.37501       69.90890       30.15758
N        105.97485       70.12349       32.94151
C        104.99115       69.25924       32.29506
C        103.59910       69.86071       32.26772
O        103.35340       70.79340       33.01471
H        106.31398       69.85009       33.87697
H        104.90555       68.30292       32.85219
H        105.38395       69.00210       31.29564
N        102.59945       69.38254       31.46503
C        102.78248       68.36111       30.43527
C        101.79429       68.62192       29.30507
O        100.59852       68.56461       29.55380
C        102.52097       66.96040       31.01733
C        102.69613       65.88149       29.97966
O        103.90650       65.65676       29.43366
O        101.74064       65.20608       29.63047
H        101.68038       69.85042       31.52261
H        103.80945       68.39649       30.04106
H        101.48023       66.93059       31.40945
H        103.21172       66.75484       31.85994
N        102.18218       68.91743       28.03375
C        103.57435       69.05778       27.61400
C        103.73202       69.53202       26.18042
O        104.76784       69.27176       25.58570
H        101.42375       69.03170       27.35005
H        104.06613       68.06483       27.71542
H        104.11175       69.79212       28.25106
N        102.74353       70.24172       25.56111
C        102.79211       70.64151       24.17154
C        102.16337       72.01849       24.06943
O        101.11107       72.16806       23.46339
C        102.05433       69.58797       23.31194
C        102.78955       68.23539       23.28596
C        102.10924       67.27883       22.34590
N        100.93628       66.69708       22.68606
O        102.62810       67.01650       21.27114
H        101.89266       70.49912       26.07267
H        103.83592       70.71701       23.79087
H        102.02478       69.96283       22.26441
H        101.01094       69.45517       23.67294
H        102.85334       67.76578       24.29156
H        103.82583       68.41702       22.92543
H        100.50985       66.87707       23.60671
H        100.47438       66.04120       22.03870
N        102.78238       73.08814       24.64343
C        102.26077       74.44160       24.50100
C        101.13162       74.72257       25.46971
O        101.28481       74.51683       26.66821
C        103.34844       75.53522       24.66942
C        102.72647       76.91888       24.36810
C        104.53272       75.29594       23.72267
H        103.69826       72.94244       25.09387
H        101.90853       74.56336       23.45038
H        103.74560       75.54230       25.70666
H        102.20401       76.91016       23.38479
H        101.98594       77.19399       25.14947
H        103.49663       77.71460       24.34981
H        104.19233       75.20760       22.66947
H        105.25308       76.13739       23.80157
H        105.07987       74.37351       24.00538
N        100.00816       75.33585       25.00770
C         98.95421       75.85561       25.86959
C         97.87536       74.81448       26.08272
O         97.06764       74.96406       26.98326
C         98.39371       77.12589       25.20032
C         97.27888       77.81047       25.94059
N         96.10162       78.05848       25.31763
O         97.44706       78.17568       27.09423
H         99.95254       75.53755       23.99647
H         99.39126       76.12672       26.86039
H         98.03916       76.85359       24.18060
H         99.22939       77.84868       25.08734
H         95.95733       77.77959       24.33491
H         95.34371       78.55329       25.80862
N         97.81185       73.72782       25.26583
C         96.88427       72.62114       25.45272
C         97.19801       71.89924       26.74754
O         98.36411       71.71330       27.06468
C         97.06509       71.62225       24.29880
C         96.74394       72.22834       22.95239
C         97.78282       72.57369       22.07290
C         95.41129       72.43060       22.55619
C         97.49820       73.10121       20.81388
C         95.12699       72.94167       21.28359
C         96.16845       73.27292       20.40805
O         95.88458       73.74695       19.17818
H         98.45901       73.67635       24.47150
H         95.83338       72.98572       25.44946
H         96.42989       70.72248       24.44711
H         98.12507       71.28354       24.31358
H         98.81358       72.44136       22.36665
H         94.59678       72.16699       23.21977
H         98.31212       73.36637       20.15103
H         94.09779       73.07013       20.97265
H         96.58407       73.95219       18.54068
N         96.17698       71.44925       27.53518
C         96.35954       70.74963       28.81178
C         96.87721       71.66905       29.91526
O         96.95843       71.23045       31.05862
C         97.18068       69.44790       28.64865
C         96.58763       68.50211       27.58369
C         95.24047       67.95915       27.97568
O         94.26060       68.18485       27.28340
O         95.11719       67.19315       29.07685
H         95.21144       71.58997       27.20796
H         95.34694       70.44835       29.15811
H         97.23120       68.91076       29.62166
H         98.22208       69.69115       28.36018
H         97.26978       67.63829       27.44268
H         96.51621       69.03585       26.61078
N         97.12110       72.98950       29.67371
C         97.34009       73.98757       30.70006
C         96.12156       74.90577       30.79060
O         96.10513       75.77353       31.64899
C         98.57429       74.83824       30.32919
C         99.87362       74.01928       30.21233
C        100.36209       73.53083       31.55765
O        101.55409       72.92035       31.68894
O         99.74938       73.82305       32.57181
H         97.03610       73.34673       28.72089
H         97.46343       73.51066       31.69710
H         98.72356       75.65675       31.07137
H         98.37493       75.32671       29.35035
H        100.63923       74.70425       29.79496
H         99.75049       73.18524       29.49079
N         95.04978       74.75074       29.94600
C         93.87429       75.59056       29.99938
H         93.01841       74.97145       30.33821
H         93.99526       76.45676       30.67993
H         93.65163       75.97045       28.97896
H         95.03628       74.00373       29.24254
Ca       102.34365       73.32578       33.76556
O        100.70466       74.22691       35.78831
H        100.70080       75.20912       35.90596
H         99.96564       73.89709       36.35569
O        103.27969       71.43902       35.78904
H        102.56119       70.86729       36.15784
H        103.99934       71.41363       36.46720
O        100.50080       71.23420       34.15945
H        100.27938       70.49559       34.77830
H        100.12720       70.95675       33.28600

Ca 1.70



