%chk=loop4.cluster52.chk
%nprocshared=48
%mem=10GB
%nosave
#b3lyp/svp scf=(tight,noincore) Test 
#IOP(5/87=12) Density=Current Pop=(MK,readradii) iop(6/33=2) iop(6/42=6)

loop4.cluster52 

   -3  1 
C         96.14114       82.03291       43.51922
C         97.30456       81.30483       44.11975
O         97.46488       80.14528       43.81605
H         95.36607       82.22109       44.28848
H         96.48674       82.98556       43.07062
H         95.69042       81.41898       42.70498
N         98.21804       81.95772       44.90187
C         99.43453       81.35988       45.48980
C        100.35682       80.61633       44.51764
O        101.34189       80.05370       44.98290
C         99.16204       80.46792       46.74558
C         98.40176       79.18735       46.46681
O         97.44416       78.88596       47.15841
O         98.67552       78.50710       45.32846
H         98.07541       82.96769       45.04816
H        100.03985       82.20466       45.88819
H         98.65454       81.06949       47.53258
H        100.15335       80.19257       47.17179
N        100.12874       80.54857       43.17530
C        100.95796       79.71518       42.31667
C        100.80331       78.23043       42.60822
O         99.73564       77.76950       42.97227
C        100.74878       79.96738       40.79926
C        101.33746       81.34335       40.42685
C         99.27457       79.83294       40.35874
C        101.42964       81.56834       38.92263
H         99.38373       81.11134       42.75312
H        102.02098       79.96441       42.53261
H        101.34545       79.19251       40.26440
H        102.37841       81.40694       40.81579
H        100.74135       82.15107       40.90136
H         98.66122       80.68348       40.72267
H         99.20073       79.82458       39.25554
H         98.82567       78.88917       40.72633
H        100.43067       81.54237       38.44552
H        101.88255       82.56322       38.73428
H        102.08233       80.79142       38.47096
N        101.84716       77.41300       42.32841
C        101.80647       75.95898       42.43158
C        101.66067       75.46548       43.86898
O        102.18193       76.10481       44.77162
C        103.03209       75.29971       41.72474
C        104.40250       75.90942       41.95031
O        104.68908       76.98895       41.45392
O        105.36463       75.19925       42.56414
H        102.68859       77.86712       41.97060
H        100.92085       75.61050       41.86726
H        102.85922       75.34561       40.63157
H        103.07206       74.22633       42.00281
N        101.03367       74.28043       44.16835
C        100.38126       73.42482       43.17868
C         99.02687       73.96799       42.75020
O         98.60795       74.98827       43.27615
H        101.04505       73.95128       45.14728
H        100.17005       72.43798       43.64674
H        101.06689       73.24760       42.32925
N         98.22611       73.31887       41.84941
C         98.62420       72.14551       41.08254
C         98.24971       72.40733       39.63082
O         97.12632       72.12395       39.25009
C         97.89088       70.88726       41.59182
C         98.37660       69.61062       40.93894
O         97.80369       68.43907       41.26975
O         99.29444       69.62216       40.13118
H         97.27989       73.69726       41.68353
H         99.70392       71.93379       41.19299
H         96.79727       70.99416       41.41996
H         98.05648       70.78923       42.68331
N         99.08903       73.02971       38.77214
C        100.44734       73.41236       39.11556
C        101.23049       74.13425       38.03135
O        102.39682       74.40261       38.25854
H         98.69383       73.20139       37.84495
H        101.01527       72.48604       39.35567
H        100.43934       74.07081       40.01013
N        100.67875       74.45025       36.81670
C        101.43141       75.07065       35.76126
C        100.62460       76.24156       35.24192
O         99.67545       76.05313       34.49793
C        101.70914       73.98657       34.70868
C        102.48107       74.51926       33.50439
C        102.93830       73.42527       32.57387
N        103.80129       73.72202       31.57843
O        102.56192       72.27108       32.72737
H         99.71907       74.22615       36.57572
H        102.41619       75.43567       36.12921
H        100.76278       73.50221       34.37999
H        102.33359       73.21166       35.21329
H        103.38460       75.03670       33.88514
H        101.85855       75.24521       32.93692
H        104.14828       74.68576       31.46484
H        104.14733       72.98416       30.94870
N        100.97597       77.49697       35.61700
C        100.34203       78.69180       35.07959
C         98.96575       78.94984       35.65035
O         98.79115       79.02526       36.85643
C        101.29624       79.89361       35.25390
C        100.62048       81.23701       34.93923
C        102.48983       79.67932       34.30573
H        101.77869       77.60800       36.25258
H        100.22701       78.56879       33.98086
H        101.65599       79.94513       36.30317
H        101.37060       82.05380       34.96917
H        100.13464       81.21715       33.94102
H         99.85176       81.46609       35.70956
H        102.13648       79.64914       33.24957
H        103.22634       80.49773       34.41034
H        103.00054       78.71588       34.51878
N         97.94562       79.15603       34.77228
C         96.58998       79.50931       35.14733
C         95.69657       78.29368       34.99016
O         94.51999       78.39145       35.27679
C         96.13356       80.59846       34.14946
C         94.93259       81.42809       34.50547
N         94.25858       82.06701       33.51972
O         94.61905       81.60199       35.67333
H         98.14055       79.06721       33.76478
H         96.57408       79.87391       36.20064
H         95.94705       80.09215       33.17365
H         96.95224       81.32439       33.97010
H         94.52682       81.92765       32.53314
H         93.47272       82.69577       33.73784
N         96.17437       77.12720       34.46980
C         95.37818       75.92177       34.29524
C         95.05592       75.28234       35.64100
O         95.94447       75.11578       36.46464
C         96.11396       74.99256       33.29325
C         95.93328       75.57856       31.89919
C         97.00067       76.14426       31.17755
C         94.64459       75.58820       31.33099
C         96.76736       76.72776       29.92074
C         94.41821       76.16413       30.08232
C         95.47245       76.74199       29.37485
O         95.23021       77.31183       28.17623
H         97.14738       77.09249       34.13628
H         94.40734       76.18694       33.82926
H         95.68246       73.97086       33.28735
H         97.18706       74.90038       33.58072
H         98.00071       76.15765       31.59173
H         93.81011       75.15320       31.86687
H         97.58734       77.17750       29.37477
H         93.41679       76.16923       29.66945
H         95.92898       77.73836       27.66109
N         93.75646       74.94224       35.92538
C         93.24724       74.48086       37.22510
C         93.19981       75.58298       38.27743
O         92.77731       75.31761       39.39367
C         93.93154       73.19900       37.75211
C         93.77915       72.01135       36.79127
C         92.33346       71.64999       36.57418
O         91.59405       71.17248       37.59444
O         91.82418       71.79479       35.47447
H         93.05919       75.04834       35.17263
H         92.17339       74.22985       37.08065
H         93.46149       72.91575       38.72061
H         95.00466       73.38851       37.95048
H         94.29819       71.12279       37.21135
H         94.26083       72.26992       35.82535
N         93.48769       76.86926       37.94796
C         93.28790       78.00099       38.83836
C         92.05043       78.76578       38.36843
O         91.19736       79.05791       39.19421
C         94.56341       78.87351       38.88703
C         95.80987       78.13305       39.45301
C         95.74890       77.79869       40.94080
O         96.80467       77.20758       41.55839
O         94.78954       78.14493       41.61077
H         93.77089       77.07470       36.99269
H         93.07129       77.66970       39.87385
H         94.37632       79.77911       39.50532
H         94.79117       79.22340       37.85679
H         96.67863       78.81340       39.31723
H         96.00599       77.22022       38.85186
N         91.85027       79.06447       37.04879
C         90.63077       79.66522       36.54417
H         89.84137       79.74166       37.31948
H         90.85442       80.67321       36.14015
H         90.22765       79.03774       35.71766
H         92.56019       78.82272       36.35695
Ca        97.15794       77.61702       43.80484
O         97.36314       75.77779       46.17822
H         96.92800       76.09104       47.01045
H         97.23140       74.79686       46.18018
O         95.24974       78.61734       45.46878
H         94.33894       78.48361       45.82464
H         95.51850       79.51396       45.78949
O         95.33254       75.39743       43.57783
H         94.51507       75.66775       43.08935
H         95.14046       74.48546       43.90951

Ca 1.70



