%chk=loop3.cluster27.chk
%nprocshared=48
%mem=10GB
%nosave
#b3lyp/svp scf=(tight,noincore) Test 
#IOP(5/87=12) Density=Current Pop=(MK,readradii) iop(6/33=2) iop(6/42=6)

loop3.cluster27 

   0  1 
C         62.57207       47.99985       41.26422
C         61.88251       47.50550       42.48556
O         62.31405       46.53272       43.08433
H         63.51849       47.45249       41.08596
H         61.88599       47.84198       40.40334
H         62.76813       49.08559       41.37731
N         60.73344       48.10707       42.86860
C         59.90791       47.62479       43.94773
C         58.77706       46.86378       43.29302
O         57.61878       47.23790       43.41619
C         59.50743       48.83716       44.81001
C         58.58728       48.48768       45.91664
O         57.48420       48.99989       45.97673
O         58.98376       47.62958       46.86026
H         60.37421       48.89024       42.30255
H         60.44541       46.89366       44.59699
H         59.02039       49.60385       44.17244
H         60.41670       49.27619       45.26963
N         59.07318       45.76434       42.53653
C         58.05909       44.88994       41.97173
C         57.36005       44.15428       43.10995
O         56.14307       44.06146       43.10195
C         58.68470       43.94717       40.91566
C         57.60855       43.10843       40.20548
C         58.15521       42.37414       38.97086
C         57.15085       41.35594       38.39581
N         55.89361       41.96621       37.95677
H         60.06330       45.51121       42.39445
H         57.32599       45.51060       41.40968
H         59.45765       43.28214       41.36262
H         59.18480       44.59072       40.15612
H         56.79017       43.77883       39.86533
H         57.20294       42.37698       40.93527
H         59.06983       41.81006       39.25186
H         58.43441       43.11715       38.18897
H         56.93521       40.58428       39.16731
H         57.62608       40.84677       37.52831
H         55.28699       41.22125       37.54281
H         55.37923       42.38215       38.76539
H         56.07555       42.69533       37.23013
N         58.08223       43.74123       44.19862
C         57.46457       43.20514       45.42166
C         56.38241       44.11709       46.01226
O         55.51742       43.62515       46.72486
C         58.52771       42.91484       46.50890
C         59.29067       44.14956       46.92315
O         60.00288       44.73368       46.12484
O         59.20057       44.60612       48.18291
H         59.10417       43.84652       44.16368
H         56.96940       42.25066       45.14249
H         59.25385       42.15590       46.14790
H         58.01530       42.49815       47.40347
N         56.34594       45.44361       45.72114
C         55.26216       46.33156       46.10563
C         55.19416       46.62219       47.58888
O         54.09918       46.78764       48.10447
H         57.09979       45.83599       45.15542
H         54.29226       45.93425       45.73103
H         55.41718       47.30459       45.59272
N         56.33501       46.80175       48.31614
C         56.33964       47.11795       49.74454
C         56.57150       48.61236       50.01033
O         56.68275       49.00507       51.16362
C         57.31414       46.14887       50.47404
C         58.70826       46.65873       50.76622
N         59.24611       46.48490       51.99952
O         59.36343       47.19807       49.89239
H         57.23171       46.66558       47.85133
H         55.33502       46.88657       50.15401
H         57.38438       45.20774       49.88805
H         56.86454       45.85861       51.44396
H         58.72268       45.98412       52.73351
H         60.20016       46.81253       52.21117
N         56.58690       49.50998       48.97850
C         56.69611       50.95026       49.14612
C         58.11624       51.45521       49.11434
O         58.29732       52.66262       49.02995
H         56.39108       49.17631       48.03121
H         56.16648       51.30616       50.05578
H         56.18788       51.41873       48.27425
N         59.17802       50.60176       49.21262
C         60.55549       51.06476       49.22646
C         61.34990       50.23802       48.17877
O         61.56653       48.98232       48.77661
C         61.14552       50.89075       50.66561
C         60.18318       51.32618       51.75193
C         59.71202       52.64507       51.81487
C         59.72554       50.38662       52.69948
C         58.78384       53.01476       52.79512
C         58.80441       50.76039       53.67972
C         58.32447       52.07553       53.72593
O         57.41946       52.44407       54.65566
H         59.01038       49.59916       49.34208
H         60.59446       52.14837       48.97216
H         62.11499       51.42675       50.74483
H         61.35683       49.82078       50.86571
H         60.04879       53.37875       51.09506
H         60.07412       49.36105       52.67416
H         58.41357       54.03065       52.82645
H         58.45829       50.02577       54.39722
H         57.06546       51.81422       55.30026
N         62.64240       50.88331       47.88483
C         63.54050       50.08447       47.02306
C         64.78396       49.77584       47.83435
O         65.37594       50.68121       48.40356
C         63.94494       50.77664       45.67331
C         62.74133       51.03721       44.73516
C         64.94517       49.86258       44.92129
C         63.11474       51.97364       43.57286
H         62.52518       51.86225       47.53622
H         63.04962       49.13740       46.73756
H         64.42917       51.74850       45.91111
H         61.91130       51.52590       45.28377
H         62.36955       50.07026       44.33058
H         64.49644       48.85827       44.77755
H         65.25277       50.23028       43.92864
H         65.87750       49.76565       45.49381
H         62.25206       52.09526       42.88772
H         63.39536       52.97042       43.97532
H         63.95937       51.60274       42.96080
N         65.26963       48.50547       47.85994
C         66.48638       48.12978       48.56653
C         67.70484       48.19138       47.65611
O         67.58513       48.47028       46.47885
C         66.31325       46.70287       49.11864
O         66.10786       45.79534       48.06823
H         64.79803       47.79223       47.29633
H         66.65779       48.82232       49.41811
H         65.45177       46.69845       49.81602
H         67.20249       46.37625       49.69253
H         65.33330       45.22338       48.30598
N         68.93181       47.91798       48.17648
C         70.14535       47.84727       47.36458
C         70.03775       46.74570       46.33192
O         70.28500       46.99213       45.15714
C         71.34092       47.55421       48.28182
H         69.00014       47.72280       49.18421
H         70.33852       48.81704       46.85448
H         72.25404       47.34810       47.68457
H         71.53281       48.43146       48.93463
H         71.13618       46.67311       48.92884
N         69.70454       45.48644       46.71337
C         69.64700       44.34848       45.80339
C         68.59412       44.52803       44.70650
O         68.88111       44.25265       43.55237
C         69.42231       43.07826       46.62759
H         69.50734       45.32721       47.71646
H         70.63928       44.22347       45.31625
H         69.47398       42.17394       45.98875
H         70.23927       43.00623       47.38312
H         68.45355       43.11109       47.16887
N         67.37885       45.06738       44.99898
C         66.37488       45.40409       43.98014
C         66.91869       46.36605       42.93603
O         66.58265       46.21644       41.76845
C         65.17105       46.05431       44.64906
C         64.28521       45.03779       45.39668
C         63.20212       45.77274       46.11421
O         62.44685       45.19943       47.05280
O         63.01526       46.95217       45.87776
H         67.19085       45.31583       45.97699
H         66.01226       44.49801       43.44838
H         64.54442       46.56494       43.89331
H         65.54763       46.83755       45.34486
H         64.89959       44.46864       46.12055
H         63.81498       44.32123       44.68880
N         67.80498       47.34135       43.27419
C         68.43269       48.20671       42.29603
H         69.50272       47.92177       42.20765
H         67.96749       48.12582       41.29088
H         68.37163       49.26246       42.63075
H         68.10090       47.42721       44.25210
Ca        61.26824       46.89393       47.90401
O         61.44904       44.30001       49.88179
H         61.16967       44.60846       50.78003
H         62.15585       43.62943       50.05473
O         62.91737       46.93053       50.03811
H         63.21091       46.15192       50.57052
H         63.38965       47.70859       50.42488

Ca 1.70



