%chk=loop2.cluster236.chk
%nprocshared=48
%mem=10GB
%nosave
#b3lyp/svp scf=(tight,noincore) Test 
#IOP(5/87=12) Density=Current Pop=(MK,readradii) iop(6/33=2) iop(6/42=6)

loop2.cluster236 

   -2  1 
C         75.83872       52.03884       56.63504
C         75.17217       51.93976       55.29687
O         74.01094       51.56014       55.23358
H         76.83957       52.51204       56.54681
H         75.22141       52.64584       57.32945
H         75.96549       51.01677       57.04765
N         75.87099       52.23057       54.16436
C         75.29033       52.10575       52.83703
C         74.12724       53.07160       52.67069
O         74.29990       54.27846       52.77170
C         76.38126       52.28664       51.76219
C         75.84103       52.22519       50.35922
O         76.02071       53.16119       49.59651
O         75.16938       51.13795       49.93386
H         76.86251       52.50187       54.25014
H         74.91790       51.06254       52.71939
H         77.12202       51.46402       51.88491
H         76.90766       53.25260       51.91281
N         72.90320       52.56018       52.37598
C         71.69260       53.33741       52.15065
C         70.54054       52.61405       52.85563
O         70.52488       51.39112       52.81034
C         71.45727       53.35028       50.63911
H         72.84066       51.54179       52.23020
H         71.80497       54.39779       52.46967
H         72.34393       53.79882       50.13645
H         71.32797       52.31719       50.25166
H         70.56713       53.95822       50.37853
N         69.50106       53.23529       53.48172
C         69.21310       54.66084       53.40355
C         70.04552       55.48842       54.36655
O         70.67672       54.93962       55.25793
C         67.68265       54.90872       53.58673
C         67.09038       54.37409       54.87410
O         66.75780       53.07234       55.00166
O         66.83479       55.13931       55.78810
H         68.78741       52.61470       53.88431
H         69.46268       55.00789       52.38047
H         67.12134       54.44867       52.74325
H         67.49110       56.00011       53.53718
N         70.08465       56.84786       54.24170
C         70.82490       57.67045       55.18350
C         72.31933       57.61633       54.93203
O         72.72220       57.14945       53.87464
H         69.55367       57.30746       53.48577
H         70.54860       57.33207       56.20023
H         70.52232       58.73567       55.07611
N         73.22970       58.13357       55.81128
C         72.91512       58.65187       57.14290
C         73.78855       57.97088       58.18605
O         74.99888       57.90624       58.02032
C         73.14089       60.16528       57.19208
C         73.01181       60.69644       58.60663
N         71.86190       60.55259       59.30972
O         73.97525       61.23347       59.13142
H         74.22042       58.14861       55.51923
H         71.85563       58.49363       57.41282
H         72.39631       60.66110       56.53215
H         74.15904       60.39216       56.81111
H         71.03788       60.09498       58.89456
H         71.80433       60.89139       60.28210
N         73.22196       57.47876       59.32035
C         74.00679       56.81348       60.35025
C         73.10871       56.09727       61.32521
O         73.33287       56.16677       62.52723
H         72.20131       57.56550       59.43810
H         74.67933       57.53706       60.86578
H         74.62836       56.03195       59.86881
N         72.04192       55.39398       60.85748
C         71.11043       54.66951       61.70434
C         70.71479       53.39250       61.02048
O         70.40709       53.42118       59.83922
C         69.84328       55.50091       62.00268
C         70.15815       56.67061       62.93355
O         69.25621       55.98084       60.81743
H         71.84119       55.42732       59.84386
H         71.56725       54.42016       62.68747
H         69.12494       54.85438       62.56642
H         68.44060       55.43973       60.64809
H         70.88033       57.37022       62.46675
H         69.22825       57.22337       63.17845
H         70.59051       56.28223       63.88265
N         70.62279       52.23857       61.72376
C         70.14150       50.99002       61.15219
C         68.81100       50.62400       61.80097
O         68.58298       50.96630       62.95891
C         71.20023       49.85585       61.29504
C         72.53617       50.13745       60.55391
C         71.52709       49.57702       62.77561
C         72.42357       50.35660       59.04387
H         70.83646       52.27002       62.73207
H         69.93652       51.10820       60.06374
H         70.76910       48.92735       60.85908
H         73.18662       49.24569       60.69602
H         73.05129       51.01615       60.99748
H         71.95905       50.47329       63.26741
H         70.62064       49.26342       63.33124
H         72.27939       48.76689       62.86221
H         73.44719       50.41806       58.61288
H         71.90271       49.51062       58.55727
H         71.89970       51.30471       58.80971
N         67.85501       49.97409       61.08596
C         66.52527       49.66538       61.59602
C         65.99323       48.37767       61.00138
O         66.48347       47.93473       59.97378
C         65.57042       50.84034       61.30352
C         65.51486       51.13259       59.82554
O         66.05635       52.25681       59.33350
O         65.02716       50.32228       59.05527
H         68.06161       49.75175       60.10967
H         66.59540       49.49473       62.69501
H         65.95715       51.73137       61.84265
H         64.54403       50.63167       61.67481
N         64.99392       47.70277       61.61898
C         64.49861       46.40419       61.16939
C         65.64808       45.38984       61.13267
O         66.35740       45.28343       62.12413
C         63.41660       45.93808       62.16182
C         62.74011       44.63842       61.80873
C         63.20164       43.42380       62.34592
C         61.59739       44.64144       60.99244
C         62.52275       42.23169       62.07223
C         60.92032       43.44826       60.72540
C         61.37990       42.24511       61.26756
H         64.59944       48.11637       62.48150
H         64.02651       46.52397       60.17050
H         62.63173       46.72387       62.22826
H         63.85436       45.86010       63.18119
H         64.07758       43.40329       62.98263
H         61.22400       45.57011       60.57952
H         62.87491       41.29886       62.49375
H         60.03213       43.45879       60.10730
H         60.84687       41.32435       61.06848
N         65.88376       44.58878       60.04314
C         66.92217       43.57332       60.01447
C         68.21170       44.10966       59.37117
O         69.12550       43.33376       59.12742
C         66.22438       42.48054       59.20520
C         65.46429       43.26918       58.14116
C         64.99286       44.51310       58.90188
H         67.17775       43.16576       61.01728
H         66.87601       41.66586       58.82341
H         65.46434       42.02468       59.88212
H         66.19388       43.56773       57.36154
H         64.62964       42.69858       57.67281
H         65.02987       45.42593       58.26430
H         63.96225       44.33441       59.26726
N         68.36218       45.44478       59.11918
C         69.56388       46.06175       58.55796
C         70.78458       45.97959       59.46793
O         71.85506       46.37737       59.02653
C         69.31048       47.57408       58.32504
C         68.26929       47.85156       57.22958
C         68.01922       49.31909       56.99258
O         68.43798       50.24714       57.86973
O         67.42962       49.67350       55.98531
H         67.58062       46.05895       59.33349
H         69.80117       45.57023       57.58914
H         70.24746       48.07030       57.99968
H         69.01817       48.01526       59.29663
H         67.29579       47.36166       57.44031
H         68.68543       47.42803       56.29483
N         70.70333       45.54084       60.75741
C         71.83901       45.57517       61.65911
H         72.73924       46.03955       61.20215
H         71.57082       46.17848       62.55182
H         72.09366       44.54469       61.97771
H         69.80829       45.20719       61.13760
Ca        66.27246       52.36743       57.09163
O         68.85020       52.83183       57.07104
H         69.39501       53.39134       56.47806
H         69.23887       52.96065       57.96156

Ca 1.70



