%chk=loop2.cluster3.chk
%nprocshared=48
%mem=10GB
%nosave
#b3lyp/svp scf=(tight,noincore) Test 
#IOP(5/87=12) Density=Current Pop=(MK,readradii) iop(6/33=2) iop(6/42=6)

loop2.cluster3 

   -2  1 
C         64.75732       54.93823       16.07350
C         65.80637       54.75934       15.00742
O         66.88762       55.31967       15.10691
H         63.81772       54.40530       15.80124
H         65.12198       54.49077       17.02145
H         64.50925       56.00689       16.22129
N         65.54915       53.91713       13.97882
C         66.51026       53.52015       12.95589
C         66.89887       54.63834       11.99156
O         66.03095       55.36940       11.53741
C         65.84348       52.37646       12.17599
C         66.72617       51.67375       11.22084
O         68.03686       51.54024       11.49812
O         66.21397       50.96868       10.36795
H         64.63096       53.44491       13.98327
H         67.41875       53.11994       13.45136
H         64.94763       52.76290       11.64448
H         65.50820       51.59511       12.89029
N         68.19640       54.75223       11.56772
C         68.65816       55.71733       10.57930
C         69.32369       55.03554        9.36249
O         69.81375       55.74974        8.49742
C         69.65202       56.67078       11.26618
H         68.89367       54.12059       11.95241
H         67.80289       56.33154       10.22762
H         69.31168       56.90850       12.29848
H         70.66886       56.22599       11.33520
H         69.71549       57.62795       10.70582
N         69.42589       53.66494        9.25512
C         70.15454       52.99313        8.16936
C         69.45519       51.76137        7.54617
O         69.84796       51.37726        6.45368
C         71.58601       52.64543        8.63803
C         71.63599       51.89326        9.93372
O         71.11023       50.80725       10.03156
O         72.27497       52.41760       10.99594
H         69.07434       53.08611       10.01808
H         70.28104       53.70469        7.32515
H         72.13996       53.59208        8.80288
H         72.11639       52.06645        7.85111
N         68.42838       51.09657        8.15757
C         67.72975       49.96608        7.53645
C         68.41618       48.61917        7.72068
O         68.02397       47.66351        7.06478
H         68.11087       51.41406        9.06565
H         67.61090       50.17525        6.45218
H         66.69940       49.88444        7.94514
N         69.45226       48.46798        8.58985
C         70.27056       47.26157        8.66850
C         69.67178       46.12290        9.51003
O         70.34947       45.12337        9.70355
C         71.70563       47.62915        9.12257
C         71.89111       48.06823       10.54355
N         73.14368       48.25871       11.00735
O         70.93632       48.23768       11.28112
H         69.73548       49.27870        9.13536
H         70.43071       46.88438        7.63453
H         72.10759       48.43358        8.46702
H         72.34405       46.73133        8.99154
H         73.95832       48.13749       10.39441
H         73.31021       48.48514       11.98339
N         68.39913       46.18366       10.00581
C         67.79504       45.10308       10.78229
C         68.23509       45.03552       12.23591
O         67.78080       44.14410       12.94107
H         67.80111       46.97593        9.75628
H         67.96874       44.13453       10.26542
H         66.69868       45.27303       10.82027
N         69.10103       45.94250       12.76173
C         69.53272       45.94458       14.15545
C         69.50533       47.34412       14.73718
O         69.77326       48.30038       14.02050
C         70.97216       45.37989       14.26626
C         70.95250       43.85670       14.16618
O         71.81909       45.88232       13.26096
H         69.49485       46.65287       12.14325
H         68.86727       45.32082       14.79359
H         71.39496       45.61445       15.26945
H         71.79230       46.87007       13.30544
H         71.97663       43.46040       14.32633
H         70.29391       43.43764       14.95856
H         70.58374       43.52566       13.17366
N         69.33312       47.52376       16.08050
C         69.56265       48.81550       16.70822
C         71.02770       48.94962       17.01626
O         71.57387       48.17426       17.79215
C         68.64911       49.07313       17.93698
C         67.19551       49.23169       17.42561
C         69.11926       50.34375       18.68403
C         66.16349       49.55952       18.49798
H         69.21807       46.69354       16.68375
H         69.31891       49.61906       15.98586
H         68.71828       48.22181       18.65071
H         66.88613       48.29370       16.91521
H         67.16038       50.06151       16.69193
H         70.14832       50.20696       19.07816
H         69.11238       51.21962       18.00384
H         68.49645       50.55985       19.57197
H         66.37876       50.53956       18.97052
H         65.16642       49.64677       18.01694
H         66.13437       48.76260       19.26701
N         71.72795       49.94438       16.41175
C         73.13084       50.17013       16.63527
C         73.35299       50.94205       17.91115
O         72.41287       51.51109       18.44825
C         73.71734       50.94252       15.44061
C         73.64853       50.10907       14.18909
O         72.51099       49.85480       13.49994
O         74.67796       49.59140       13.79352
H         71.24768       50.55150       15.73988
H         73.64816       49.18584       16.70855
H         74.79167       51.09014       15.65397
H         73.26060       51.94608       15.30338
N         74.58971       50.98824       18.47007
C         74.89887       51.74704       19.67107
C         74.72695       53.26306       19.45863
O         74.00622       53.86044       20.23405
C         76.27633       51.32399       20.21590
C         76.62387       51.98913       21.52281
C         77.88046       52.59249       21.69110
C         75.70696       51.99731       22.59235
C         78.21112       53.19455       22.90831
C         76.03309       52.62143       23.79358
C         77.28466       53.21626       23.95497
H         75.33863       50.42436       18.03245
H         74.16249       51.43474       20.44240
H         77.07699       51.48118       19.46721
H         76.22868       50.22857       20.39904
H         78.60791       52.58066       20.88796
H         74.73490       51.53545       22.50132
H         79.18559       53.64463       23.04016
H         75.31234       52.63832       24.60022
H         77.53659       53.68998       24.89314
N         75.28947       53.93254       18.39351
C         74.92687       55.30070       18.02368
C         73.45076       55.63755       18.17920
O         73.12105       56.66677       18.75880
C         75.29540       55.32932       16.52900
C         76.51355       54.42902       16.44570
C         76.21206       53.33314       17.46056
H         75.56730       56.00678       18.59403
H         74.50078       54.82059       15.94042
H         75.44096       56.34696       16.10594
H         76.72184       54.03465       15.42486
H         77.38451       55.01356       16.80421
H         75.73897       52.48514       16.95932
H         77.16052       53.02673       17.94819
N         72.50218       54.81278       17.66348
C         71.07215       55.09171       17.72371
C         70.54801       54.99212       19.14729
O         69.67900       55.76022       19.52840
C         70.30042       54.08562       16.87476
C         70.77056       54.04837       15.41211
C         70.02406       52.99338       14.69055
O         70.09281       52.90268       13.37131
O         69.50713       52.07971       15.30660
H         72.82347       53.94503       17.20425
H         70.85972       56.09309       17.28575
H         69.21757       54.35495       16.87423
H         70.41379       53.07678       17.32675
H         71.84062       53.77492       15.31587
H         70.63367       55.03080       14.91851
N         71.02869       54.02413       19.97598
C         70.57075       53.84321       21.33340
H         69.50586       53.53466       21.33526
H         71.17174       53.03966       21.81573
H         70.70821       54.77759       21.91529
H         71.76101       53.40055       19.63669
Ca        70.66942       50.90227       12.82263
O         67.50827       50.18309       14.20958
H         66.57593       49.89631       14.36840
H         67.51345       51.12828       14.48402
O         68.14830       48.82037       11.52013
H         67.63895       48.68690       12.35363
H         67.44846       48.84781       10.82441

Ca 1.70



