%chk=loop3.cluster111.chk
%nprocshared=48
%mem=10GB
%nosave
#b3lyp/svp scf=(tight,noincore) Test 
#IOP(5/87=12) Density=Current Pop=(MK,readradii) iop(6/33=2) iop(6/42=6)

loop3.cluster111 

   0  1 
C        101.29217       44.98888       12.55154
C        101.25919       46.28429       11.81403
O        100.18543       46.78701       11.52396
H        101.94509       45.06604       13.44424
H        100.27019       44.67842       12.85164
H        101.70732       44.22765       11.85639
N        102.42580       46.87069       11.44233
C        102.46639       48.00402       10.53337
C        102.02922       47.54958        9.15730
O        102.38470       46.45911        8.73446
C        103.86758       48.66235       10.41609
C        105.00487       47.71555       10.12287
O        105.47887       46.90507       11.08917
O        105.56129       47.74235        9.03788
H        103.30112       46.44558       11.76526
H        101.79194       48.81398       10.89774
H        104.11738       49.21702       11.34491
H        103.80836       49.42321        9.60204
N        101.37630       48.42090        8.35082
C        101.14630       48.14416        6.93523
C        100.01797       47.16882        6.69059
O         99.83448       46.75573        5.54952
C        100.85736       49.49382        6.26571
C        100.80214       49.50837        4.73301
C        100.62602       50.94581        4.20941
C        101.79024       51.89298        4.57523
N        101.50701       53.25633        4.14061
H        101.16535       49.36086        8.72189
H        102.09152       47.74285        6.50666
H        101.70623       50.12168        6.58307
H         99.91646       49.92626        6.67700
H         99.93218       48.91172        4.38380
H        101.73011       49.06408        4.31417
H         99.67340       51.35252        4.61391
H        100.55051       50.90867        3.10313
H        102.72873       51.52583        4.10264
H        101.95530       51.94496        5.66772
H        101.36207       53.28894        3.10709
H        100.65284       53.60564        4.63484
H        102.31389       53.86843        4.40184
N         99.16450       46.79865        7.68543
C         97.95634       46.04127        7.40415
C         97.06862       46.80566        6.41452
O         96.39499       46.17827        5.61675
C         97.22829       45.63068        8.70664
C         96.84178       46.73512        9.65112
O         96.28583       46.41539       10.83418
O         97.04752       47.90558        9.37906
H         99.33304       47.12908        8.64817
H         98.25071       45.08493        6.91319
H         97.91065       44.95642        9.26791
H         96.31453       45.06060        8.46369
N         97.08623       48.17401        6.37634
C         96.34669       48.92586        5.36249
C         96.30258       50.42564        5.66012
O         96.88870       50.85336        6.63673
H         97.64367       48.68126        7.07202
H         95.30762       48.54512        5.32695
H         96.83708       48.76520        4.37577
N         95.61883       51.31439        4.87311
C         94.82839       50.95922        3.69934
C         93.38749       51.45380        3.91535
O         93.21503       52.44811        4.61016
C         95.37948       51.66036        2.43457
C         96.88424       51.69715        2.28504
N         97.60351       50.58377        2.02048
O         97.45679       52.77471        2.36138
H         95.65155       52.31087        5.14663
H         94.86349       49.86455        3.54614
H         95.05165       52.72006        2.47271
H         94.93015       51.20866        1.52419
H         97.14952       49.66706        1.91743
H         98.62216       50.65765        1.87728
N         92.29302       50.86303        3.35699
C         92.35243       49.72412        2.46765
C         92.05249       48.44480        3.20348
O         92.76432       48.10979        4.13957
H         91.36178       51.25879        3.56608
H         93.34785       49.61448        2.00612
H         91.65510       49.89983        1.61904
N         91.03411       47.64721        2.78616
C         90.79103       46.29988        3.29795
C         90.83061       45.39345        2.08233
O         89.82011       44.82116        1.69286
C         89.42236       46.25889        3.98066
C         89.35432       47.19039        5.15864
C         90.09379       46.93005        6.32531
C         88.53139       48.32377        5.09903
C         89.98694       47.78544        7.42690
C         88.43436       49.18050        6.19410
C         89.15347       48.90902        7.36640
O         89.04376       49.71905        8.43781
H         90.43582       47.97998        2.01323
H         91.56942       45.98244        4.02960
H         89.19029       45.22740        4.32408
H         88.65928       46.54891        3.22550
H         90.73432       46.05798        6.38694
H         87.96723       48.54333        4.20119
H         90.54396       47.57083        8.33046
H         87.79401       50.05056        6.13270
H         88.45681       50.48895        8.43068
N         91.97214       45.34119        1.35510
C         91.98205       44.96220       -0.05672
C         92.30264       43.50870       -0.35519
O         92.22142       43.14678       -1.52096
C         92.97280       45.86830       -0.87505
C         92.32025       47.21158       -1.25540
C         94.34101       46.08203       -0.17694
C         93.18559       48.00542       -2.23706
H         92.76489       45.86523        1.73926
H         90.95997       45.09061       -0.47886
H         93.16497       45.35171       -1.84013
H         92.10036       47.82142       -0.35250
H         91.35910       46.99474       -1.77189
H         94.26249       46.82854        0.64540
H         94.73629       45.13047        0.23203
H         95.09110       46.49031       -0.88073
H         93.42571       47.37788       -3.12378
H         92.63892       48.90607       -2.58008
H         94.13050       48.33546       -1.76019
N         92.71578       42.63149        0.59709
C         93.22739       41.31021        0.22796
C         94.73420       41.23834        0.42947
O         95.34967       40.31586       -0.09127
C         92.49153       40.16622        0.96040
O         93.04660       39.89903        2.22138
H         92.75539       42.94359        1.56381
H         93.04900       41.14299       -0.85311
H         92.59857       39.23161        0.37135
H         91.39545       40.36428        1.02295
H         92.56326       40.44468        2.88251
N         95.39521       42.16966        1.19261
C         96.81266       42.09701        1.53025
C         97.03270       41.14200        2.71257
O         97.75756       41.48499        3.63905
C         97.28108       43.52170        1.91202
H         94.87441       42.96313        1.57065
H         97.38076       41.77689        0.63182
H         96.78877       43.85240        2.85668
H         98.37969       43.57023        2.05276
H         96.99265       44.24506        1.11946
N         96.33473       39.96752        2.79044
C         96.24927       39.11609        3.95879
C         96.17271       39.91460        5.24386
O         96.85142       39.59860        6.21128
C         97.28100       38.00105        3.87035
H         95.69301       39.71470        2.04764
H         95.25916       38.60618        3.89371
H         97.11588       37.25383        4.67373
H         97.14818       37.48536        2.89098
H         98.30756       38.41282        3.92020
N         95.29810       40.96237        5.30433
C         95.02236       41.71947        6.51638
C         93.69761       41.28319        7.11192
O         93.50013       41.46413        8.30553
C         95.06073       43.25696        6.30302
C         93.86676       43.92710        5.58810
C         93.76571       43.61187        4.14702
O         93.03113       42.55950        3.77086
O         94.12691       44.43041        3.31787
H         94.75615       41.16662        4.46183
H         95.81439       41.47920        7.26070
H         96.01103       43.54646        5.80319
H         95.04611       43.70740        7.31113
H         93.98413       45.02824        5.66884
H         92.89661       43.68429        6.07326
N         92.75781       40.65385        6.34323
C         91.50256       40.17183        6.86434
H         90.68503       40.45877        6.16930
H         91.55149       39.06462        6.90942
H         91.27558       40.58076        7.86925
H         92.93332       40.47883        5.34709
Ca        95.84255       49.08840       11.74677
O         96.04970       47.13857       13.74292
H         95.17271       47.03985       14.19049
H         96.70352       47.21808       14.48061
O         96.16721       50.87186        9.67700
H         96.92089       50.81100        9.04364
H         95.73243       51.73487        9.47093
O         98.56329       49.74554       11.51148
H         98.93939       48.83496       11.56477
H         98.70301       50.00956       10.56895
O         93.38981       48.37824       12.74266
H         93.23452       49.03996       13.46245
H         92.52631       47.91248       12.62578
O         94.05506       51.34417       11.59026
H         94.45298       52.21499       11.34088
H         94.16519       51.29922       12.57247

Ca 1.70



