%chk=loop2.cluster192.chk
%nprocshared=48
%mem=10GB
%nosave
#b3lyp/svp scf=(tight,noincore) Test 
#IOP(5/87=12) Density=Current Pop=(MK,readradii) iop(6/33=2) iop(6/42=6)

loop2.cluster192 

   -2  1 
C         58.80996       47.27644       10.95570
C         59.89616       46.40957       10.39362
O         59.66591       45.22885       10.17161
H         57.86720       46.70200       11.08319
H         59.13668       47.64433       11.95103
H         58.61966       48.14340       10.28949
N         61.12919       46.94165       10.15051
C         62.28031       46.13105        9.74729
C         62.46514       46.10005        8.23629
O         63.55201       46.37430        7.74134
C         63.55568       46.61857       10.47850
C         63.99767       48.02852       10.12921
O         65.13530       48.51295       10.65882
O         63.35261       48.72658        9.36042
H         61.26708       47.94128       10.35621
H         62.10323       45.07813       10.06213
H         64.38622       45.92782       10.22034
H         63.39009       46.56430       11.57532
N         61.42359       45.76983        7.43477
C         61.53533       45.72757        5.98374
C         60.15711       45.69876        5.37234
O         59.28750       45.02236        5.90824
C         62.30411       44.48173        5.52290
H         60.51052       45.59207        7.87368
H         62.07035       46.63429        5.63949
H         63.34303       44.48558        5.90799
H         61.79217       43.55776        5.86858
H         62.35169       44.45330        4.41170
N         59.85681       46.33424        4.21011
C         60.80439       47.08608        3.37924
C         61.14497       48.46420        3.95939
O         60.59865       48.84367        4.98158
C         60.30941       47.13794        1.90501
C         58.87546       47.56173        1.66693
O         58.63567       48.55463        1.01837
O         57.85247       46.75846        2.00763
H         58.90761       46.18366        3.87032
H         61.76261       46.52251        3.32712
H         60.38670       46.11619        1.47601
H         61.00080       47.78115        1.31871
N         62.12568       49.22932        3.38996
C         62.57596       50.49569        3.95827
C         62.69470       51.59008        2.90878
O         63.81763       51.91957        2.55565
H         62.64175       48.85739        2.57856
H         63.59931       50.31468        4.35327
H         61.97323       50.83261        4.82546
N         61.62241       52.22461        2.34500
C         60.23065       51.94119        2.67343
C         59.87516       52.30136        4.10633
O         60.57395       53.09229        4.72953
C         59.27698       52.69426        1.70810
C         59.58781       52.43861        0.24594
N         59.75289       51.18168       -0.21635
O         59.71033       53.38136       -0.52082
H         61.81917       52.92769        1.61483
H         60.07732       50.85028        2.55055
H         59.32953       53.79264        1.88768
H         58.23432       52.37957        1.91433
H         59.72197       50.39635        0.42896
H         59.96349       50.99911       -1.20716
N         58.82210       51.68025        4.71410
C         58.46365       51.89325        6.10549
C         56.97424       52.03486        6.36870
O         56.62869       52.26514        7.51603
H         58.32962       50.94856        4.19134
H         58.99984       52.76857        6.53098
H         58.77311       50.99510        6.68132
N         56.03001       51.86110        5.38779
C         54.59616       51.86758        5.69182
C         53.94375       50.54699        5.34175
O         54.55360       49.69465        4.72624
C         53.86912       53.06004        5.04439
C         54.39498       54.37750        5.61854
O         53.95115       53.03310        3.64109
H         56.31614       51.68306        4.42250
H         54.45054       51.95864        6.78899
H         52.79190       53.01056        5.31499
H         54.90635       53.10161        3.38613
H         54.25953       54.37836        6.72377
H         55.47492       54.50125        5.39531
H         53.82885       55.23097        5.19606
N         52.69966       50.30037        5.83366
C         52.14397       48.94968        5.94070
C         51.39790       48.44948        4.70506
O         51.03197       49.22326        3.83075
C         51.32688       48.74485        7.28614
C         52.08651       47.86718        8.31462
C         50.81012       50.03671        7.97229
C         53.48450       48.36512        8.70684
H         52.28558       51.05765        6.37868
H         52.99570       48.24597        5.97020
H         50.40703       48.17076        7.03801
H         52.19970       46.84965        7.89091
H         51.46709       47.77197        9.23387
H         50.12907       49.79372        8.81385
H         51.64308       50.63458        8.40516
H         50.24398       50.67007        7.25568
H         53.45444       49.37775        9.15394
H         53.91871       47.66245        9.44922
H         54.17137       48.38102        7.83739
N         51.15413       47.10608        4.60454
C         50.43221       46.42494        3.52176
C         49.87843       45.08017        4.01865
O         50.00518       44.79109        5.19544
C         51.31303       46.29149        2.25810
C         52.52609       45.43512        2.46621
O         53.74113       45.99121        2.44535
O         52.42186       44.22826        2.59842
H         51.49704       46.53290        5.38076
H         49.53877       47.02895        3.25618
H         51.63188       47.30917        1.95175
H         50.73880       45.86647        1.40642
N         49.20689       44.22692        3.19392
C         48.45091       43.05659        3.65709
C         49.21443       42.10807        4.61561
O         48.85254       42.02890        5.77856
C         47.13395       43.55539        4.29493
C         46.13646       42.43215        4.45897
C         45.77771       41.97502        5.73638
C         45.54918       41.84007        3.32435
C         44.85198       40.93651        5.87644
C         44.61353       40.81230        3.47066
C         44.26701       40.35918        4.74565
H         49.12444       44.47369        2.19588
H         48.15407       42.47822        2.75904
H         46.66073       44.32089        3.64171
H         47.36141       44.05075        5.26446
H         46.22375       42.41397        6.61947
H         45.80619       42.18491        2.32972
H         44.58631       40.58086        6.86278
H         44.15574       40.36832        2.59551
H         43.54426       39.56155        4.85757
N         50.26282       41.33841        4.19354
C         50.99691       40.44273        5.08693
C         51.73803       41.20787        6.15818
O         51.86412       40.71214        7.27311
C         51.93306       39.69238        4.12393
C         52.09840       40.64548        2.94979
C         50.72011       41.28979        2.83072
H         50.34291       39.69091        5.58246
H         52.88147       39.31509        4.56958
H         51.36804       38.82077        3.72850
H         52.82091       41.42999        3.25832
H         52.46585       40.17998        2.01007
H         50.82320       42.28518        2.35611
H         50.00427       40.65956        2.25961
N         52.24788       42.43545        5.89193
C         53.01670       43.20614        6.85565
C         52.17937       43.58833        8.08283
O         52.72247       43.70857        9.17121
C         53.59922       44.45498        6.13803
C         55.03158       44.73821        6.56896
C         55.75633       45.79532        5.73737
O         55.98450       45.41685        4.40802
O         55.12968       47.04092        5.73313
H         52.10824       42.81752        4.94694
H         53.85470       42.54127        7.16646
H         52.94575       45.32715        6.29220
H         53.66335       44.27010        5.04568
H         55.62469       43.80789        6.43859
H         55.04085       45.03316        7.63546
N         50.82817       43.74708        7.96583
C         49.94963       44.08239        9.06573
H         48.92308       43.73484        8.81016
H         50.25159       43.56956       10.00043
H         49.89111       45.18462        9.19466
H         50.38890       43.57767        7.06272
Ca        55.55926       47.47022        3.53646
O         56.50980       50.13242        2.49570
H         57.46547       50.25371        2.28452
H         56.05891       50.85965        1.99986
O         57.51328       48.27345        5.23931
H         58.30290       48.84197        5.11644
H         57.81575       47.54707        5.83763
O         54.36280       48.80157        1.24825
H         53.69323       49.46771        1.54515
H         54.49884       48.98763        0.28607

Ca 1.70



