%chk=loop3.cluster93.chk
%nprocshared=48
%mem=10GB
%nosave
#b3lyp/svp scf=(tight,noincore) Test 
#IOP(5/87=12) Density=Current Pop=(MK,readradii) iop(6/33=2) iop(6/42=6)

loop3.cluster93 

   0  1 
C        103.60217       75.86521       83.17401
C        102.27690       75.24723       82.87759
O        101.49671       75.84385       82.14563
H        104.34866       75.45397       82.46384
H        103.54719       76.96675       83.03930
H        103.91046       75.64398       84.21602
N        101.93041       74.05307       83.44121
C        100.66040       73.41347       83.15360
C         99.71023       73.67428       84.29692
O        100.00199       73.32027       85.43375
C        100.86471       71.93039       82.77814
C         99.69649       71.38605       82.00099
O         99.83224       70.38087       81.32220
O         98.56097       72.09944       81.91380
H        102.57105       73.60546       84.11529
H        100.23794       73.88937       82.24430
H        101.12661       71.29019       83.64934
H        101.71747       71.90596       82.06697
N         98.56338       74.36746       84.05891
C         97.66600       74.85733       85.08597
C         96.35846       74.08145       85.16469
O         95.55823       74.37173       86.03423
C         97.50652       76.37574       84.89323
C         98.81374       77.14318       85.20489
C         99.22250       76.98275       86.68658
C        100.22860       78.03048       87.17939
N        101.49115       78.01167       86.44350
H         98.34296       74.61229       83.08579
H         98.07712       74.66596       86.09551
H         96.71696       76.77319       85.56331
H         97.19211       76.58434       83.84446
H         98.61388       78.21525       84.99886
H         99.64721       76.81543       84.54159
H         99.63109       75.96566       86.86814
H         98.31667       77.11373       87.31762
H        100.43029       77.83407       88.25707
H         99.76539       79.03745       87.09687
H        102.10631       78.76413       86.83018
H        101.96792       77.08874       86.55971
H        101.32958       78.21207       85.43124
N         96.18424       72.96314       84.40331
C         95.27194       71.88739       84.79823
C         96.06976       70.61661       85.14966
O         95.57502       69.82848       85.95103
C         94.16100       71.64725       83.75820
C         94.64120       71.58733       82.33908
O         94.25803       72.41642       81.53042
O         95.47425       70.62158       81.94249
H         96.80882       72.79360       83.61758
H         94.73845       72.16027       85.73643
H         93.44685       72.49459       83.82306
H         93.60526       70.71627       84.01078
N         97.32982       70.37479       84.66081
C         98.12077       69.20124       85.00391
C         97.70274       67.94404       84.25379
O         98.24824       66.88603       84.51696
H         97.76947       71.04111       84.02191
H         98.09831       69.05116       86.10499
H         99.17832       69.38871       84.71696
N         96.74830       68.00567       83.28576
C         96.23508       66.85176       82.56078
C         97.31290       66.18249       81.72682
O         97.87928       66.81811       80.85360
C         95.04396       67.31906       81.68199
C         94.27251       66.19472       81.04453
N         93.74759       66.34242       79.80581
O         94.05247       65.17347       81.67699
H         96.33407       68.90787       83.08373
H         95.83305       66.14060       83.31152
H         95.35991       68.05786       80.91258
H         94.32888       67.84711       82.34883
H         93.86709       67.22309       79.28362
H         93.18198       65.58797       79.38973
N         97.61392       64.86709       81.92210
C         98.59464       64.17308       81.09711
C         97.94490       63.31421       80.03324
O         98.66488       62.74587       79.22058
H         97.08823       64.32677       82.62507
H         99.23273       63.53672       81.74902
H         99.26756       64.89508       80.59267
N         96.59498       63.12813       79.99505
C         95.96454       62.17148       79.09959
C         95.80347       62.74865       77.69565
O         95.13968       63.76402       77.53280
C         94.60144       61.77698       79.70191
C         93.88039       60.57662       79.13195
C         92.49830       60.48137       79.35264
C         94.54192       59.51982       78.46943
C         91.78079       59.37278       78.90536
C         93.81936       58.40548       78.02995
C         92.43549       58.33190       78.24377
O         91.72923       57.26311       77.82451
H         96.01246       63.56032       80.72697
H         96.59971       61.26128       79.10295
H         93.93706       62.66880       79.67344
H         94.74912       61.53233       80.77749
H         91.97736       61.27247       79.87807
H         95.60827       59.53136       78.30446
H         90.71456       59.32063       79.08224
H         94.33665       57.59489       77.53153
H         92.15022       56.52489       77.36214
N         96.39540       62.13147       76.63562
C         96.30598       62.54917       75.22970
C         94.88569       62.41270       74.67537
O         93.91861       62.57040       75.40297
C         96.90034       63.97699       74.89643
C         97.45822       64.04739       73.43325
C         98.02244       64.37240       75.86967
C         97.70229       65.46030       72.90659
H         96.95670       61.28730       76.82907
H         96.93721       61.80428       74.69577
H         96.08659       64.72888       75.01030
H         96.75909       63.66798       72.69074
H         98.38572       63.43592       73.35922
H         98.49463       65.33087       75.58099
H         97.61144       64.53355       76.88541
H         98.80113       63.58350       75.90619
H         98.08479       65.39450       71.86496
H         96.73732       66.01228       72.87923
H         98.44092       66.02494       73.50054
N         94.72403       62.22345       73.33925
C         93.44576       62.30263       72.64387
C         93.23002       61.14542       71.66890
O         92.10201       60.97449       71.22321
C         93.45064       63.61504       71.84003
O         94.52483       63.61596       70.93453
H         95.56182       62.10874       72.77892
H         92.60404       62.34253       73.37056
H         93.56082       64.45936       72.56072
H         92.50068       63.74440       71.27963
H         94.81579       64.55651       70.82024
N         94.27747       60.37046       71.23220
C         94.24872       59.35216       70.18921
C         93.02811       59.36890       69.27759
O         92.26196       58.41662       69.28466
C         94.51698       57.99605       70.84168
H         95.20716       60.50830       71.63643
H         95.10595       59.53976       69.50740
H         95.47369       58.04691       71.40736
H         93.70137       57.72935       71.54599
H         94.61813       57.21069       70.06449
N         92.79865       60.39845       68.40655
C         93.68928       61.54550       68.23718
C         94.70703       61.26309       67.14463
O         94.28912       60.78348       66.09910
C         92.87059       62.77194       67.81985
H         91.98963       60.31656       67.76810
H         94.13005       61.82732       69.19594
H         92.37262       62.60821       66.83936
H         92.09563       62.99361       68.58305
H         93.53898       63.65693       67.73227
N         96.03954       61.57206       67.22314
C         96.74155       62.21998       68.33477
C         97.93597       61.37144       68.73935
O         98.08364       61.06258       69.91439
C         97.20770       63.62310       67.89328
C         97.78975       64.43197       69.06697
C         98.25107       65.78604       68.61561
O         99.23522       65.89172       67.90114
O         97.58714       66.89073       69.00638
H         96.59391       61.37930       66.37697
H         96.09695       62.37111       69.21505
H         96.32246       64.18392       67.51617
H         97.94326       63.54018       67.06443
H         98.64308       63.91050       69.55191
H         96.98818       64.55823       69.82375
N         98.82245       60.93523       67.79651
C         99.94775       60.09059       68.12264
H        100.68935       60.65579       68.72346
H         99.60317       59.19406       68.67983
H        100.43359       59.74757       67.18300
H         98.67802       61.17343       66.80569
Ca        97.12146       71.79850       80.23323
O         95.70066       73.71863       78.76171
H         95.64857       74.70441       78.69919
H         94.97752       73.38496       78.17556
O         99.28615       73.61238       79.76439
H         99.33374       74.54472       80.09071
H         99.87572       73.58548       78.97243
O         94.84754       70.68998       78.89937
H         94.52753       70.79291       77.96898
H         94.03813       70.46944       79.42415
O         98.06883       71.58665       77.61033
H         97.80132       71.16833       76.75516
H         99.02527       71.35535       77.72057
O         96.66114       74.27790       81.40912
H         97.24282       75.03628       81.15521
H         95.75387       74.66270       81.46492
O         97.70590       69.29014       79.34416
H         97.33039       69.07923       80.23469
H         97.09953       68.84761       78.70058

Ca 1.70



