%chk=loop3.cluster102.chk
%nprocshared=48
%mem=10GB
%nosave
#b3lyp/svp scf=(tight,noincore) Test 
#IOP(5/87=12) Density=Current Pop=(MK,readradii) iop(6/33=2) iop(6/42=6)

loop3.cluster102 

   0  1 
C         53.32753       61.32527       26.49343
C         52.70022       62.68074       26.57331
O         51.52032       62.78397       26.29941
H         54.36956       61.34163       26.87409
H         52.74239       60.62907       27.13342
H         53.31749       60.96196       25.44730
N         53.45091       63.75954       26.95058
C         52.96871       65.08886       27.33292
C         51.90198       65.72888       26.43630
O         52.19028       66.69469       25.74479
C         52.50397       65.08217       28.81458
C         53.53270       64.54647       29.77257
O         54.01299       65.33277       30.75428
O         53.89538       63.38301       29.70033
H         54.45659       63.59569       27.11057
H         53.85932       65.75873       27.29799
H         51.59150       64.46803       28.94992
H         52.26592       66.11808       29.11254
N         50.60809       65.31439       26.53764
C         49.45681       65.97788       25.92147
C         49.30214       67.42133       26.40514
O         48.63223       68.20768       25.74361
C         48.18636       65.14809       26.25404
C         47.90350       65.05657       27.77986
C         46.81186       64.03625       28.10009
C         46.50939       63.92153       29.60949
N         47.67436       63.52335       30.40968
H         50.42316       64.51617       27.13925
H         49.61582       65.98032       24.81998
H         48.35968       64.12158       25.85857
H         47.29562       65.56424       25.73719
H         47.61854       66.05404       28.15914
H         48.79564       64.72758       28.33876
H         47.12701       63.03824       27.72186
H         45.88016       64.33396       27.57520
H         45.71520       63.15249       29.72861
H         46.11594       64.88818       29.99228
H         48.13223       62.67329       30.00773
H         48.36435       64.30592       30.47627
H         47.35675       63.30336       31.38170
N         49.91717       67.83480       27.54960
C         49.92409       69.20631       28.05961
C         50.94621       69.36195       29.19838
O         51.61621       68.39826       29.55224
C         48.50649       69.68053       28.47306
C         47.80375       68.80547       29.46804
O         48.35446       67.65462       29.88570
O         46.70205       69.12685       29.87830
H         50.42691       67.12228       28.08499
H         50.28464       69.88433       27.25460
H         47.85499       69.76096       27.57808
H         48.58875       70.69261       28.90748
N         51.14911       70.56249       29.80471
C         52.17793       70.77576       30.81146
C         51.56216       70.77243       32.17530
O         50.57833       71.46812       32.38586
H         50.55611       71.36722       29.54942
H         52.67480       71.74466       30.60901
H         52.96396       69.98824       30.76793
N         52.07496       69.98003       33.15832
C         51.37183       69.74573       34.40858
C         52.06351       70.35008       35.61628
O         51.36895       70.64685       36.57045
C         51.14217       68.22963       34.55219
C         50.43566       67.69127       33.33305
N         49.19896       68.13206       33.01484
O         50.99072       66.86775       32.61954
H         52.94691       69.45514       32.98112
H         50.37568       70.23942       34.37762
H         50.53208       67.99935       35.45053
H         52.12865       67.72171       34.64883
H         48.72036       68.82834       33.60108
H         48.72012       67.77370       32.18407
N         53.39888       70.63973       35.62698
C         54.06488       71.31493       36.74031
C         54.03035       70.53690       38.04389
O         54.42250       69.37914       38.06189
H         53.96914       70.41440       34.80066
H         53.61014       72.31865       36.88341
H         55.13039       71.46487       36.46730
N         53.57606       71.14363       39.19018
C         53.45084       70.49136       40.50076
C         52.36523       69.42358       40.50927
O         52.22189       68.73509       41.50824
C         54.82426       69.98097       41.00984
C         54.85470       69.62171       42.48808
C         54.53104       70.58378       43.46550
C         55.25012       68.33687       42.90309
C         54.60042       70.26489       44.82613
C         55.32514       68.02418       44.26644
C         55.00153       68.98446       45.23048
O         55.08313       68.67013       46.54031
H         53.28734       72.13117       39.13398
H         53.10868       71.27053       41.21402
H         55.56333       70.79795       40.87507
H         55.15523       69.11618       40.39740
H         54.23343       71.58312       43.17761
H         55.51374       67.58204       42.17376
H         54.35111       71.01582       45.56616
H         55.64215       67.03572       44.57528
H         54.86563       69.31027       47.23355
N         51.56097       69.24907       39.41374
C         50.46985       68.30088       39.26020
C         49.20202       68.85315       39.90879
O         48.22075       69.02396       39.20262
C         50.88620       66.84839       39.59780
C         52.29120       66.48530       39.01210
C         49.81101       65.85769       39.11814
C         52.43682       66.55497       37.48706
H         51.72750       69.83137       38.60659
H         50.23085       68.28488       38.16919
H         50.96067       66.76008       40.70035
H         52.57621       65.46720       39.34508
H         53.05265       67.17282       39.43123
H         49.70896       65.87926       38.01128
H         50.07619       64.82710       39.43152
H         48.82175       66.11134       39.55350
H         52.19890       67.56842       37.10964
H         53.49399       66.34426       37.21376
H         51.79951       65.80119       36.98247
N         49.19217       69.28219       41.20628
C         48.10474       70.06854       41.78374
C         46.89178       69.24382       42.19721
O         45.90740       69.84018       42.61142
C         48.66236       70.93854       42.92308
O         49.66265       71.77285       42.39369
H         50.04677       69.20493       41.75467
H         47.74611       70.79570       41.01815
H         49.08737       70.28078       43.71419
H         47.85953       71.57603       43.35276
H         50.17986       72.13322       43.15839
N         46.84098       67.88586       42.00407
C         45.59250       67.11938       42.06235
C         44.63837       67.53992       40.93073
O         43.49046       67.11832       40.91861
C         44.95883       67.12937       43.46539
H         47.68104       67.38756       41.68040
H         45.82760       66.05271       41.85918
H         45.69370       66.74589       44.20707
H         44.61353       68.13104       43.78602
H         44.08318       66.44390       43.48329
N         45.09035       68.33208       39.90930
C         44.30987       68.73316       38.75117
C         44.24620       67.61545       37.73311
O         45.28013       67.04234       37.41397
C         45.01087       69.90454       38.04139
H         46.05138       68.66519       39.93533
H         43.31938       69.11780       39.08174
H         45.92421       69.56919       37.49984
H         44.31539       70.35929       37.30412
H         45.31135       70.68401       38.77183
N         43.07485       67.30631       37.11940
C         42.96948       66.33793       36.02911
C         43.50206       64.96997       36.41666
O         44.13016       64.31187       35.59599
C         43.63747       66.85288       34.73132
C         43.06421       68.20436       34.31682
C         43.49814       68.57578       32.94461
O         42.97599       68.04491       31.97821
O         44.40113       69.56510       32.79754
H         42.21908       67.80583       37.40520
H         41.88768       66.22085       35.80298
H         43.44999       66.11065       33.92548
H         44.74211       66.95807       34.85123
H         43.42619       68.97827       35.02686
H         41.95363       68.20464       34.33322
N         43.33031       64.49871       37.68092
C         43.84443       63.21328       38.10308
H         44.69551       63.37380       38.79643
H         43.04324       62.65309       38.62527
H         44.19525       62.59501       37.24906
H         42.86712       65.09200       38.38504
Ca        44.83668       70.83887       30.99197
O         46.41127       72.28495       28.70719
H         47.27954       72.32799       28.23647
H         45.80255       72.80126       28.12373
O         43.31974       69.45771       29.29533
H         43.35006       69.24627       28.33302
H         43.22951       68.57677       29.72790
O         43.04621       72.04368       33.18685
H         42.96572       73.02919       33.22396
H         42.42900       71.71236       33.88633
O         42.86816       72.69090       29.88036
H         42.23244       72.35874       29.19813
H         42.31455       73.23042       30.49862
O         47.32095       71.10797       32.30836
H         48.18271       71.37095       31.90309
H         47.51989       70.95453       33.26508
O         45.67487       73.57733       31.86410
H         45.02689       74.32257       31.79874
H         46.19958       73.77109       32.68102

Ca 1.70



