%chk=loop2.cluster106.chk
%nprocshared=48
%mem=10GB
%nosave
#b3lyp/svp scf=(tight,noincore) Test 
#IOP(5/87=12) Density=Current Pop=(MK,readradii) iop(6/33=2) iop(6/42=6)

loop2.cluster106 

   -2  1 
C         56.82306       26.81528       13.03925
C         57.08413       27.15974       11.60524
O         56.28112       26.80725       10.76299
H         55.79816       26.39399       13.14208
H         57.54971       26.05188       13.38762
H         56.89143       27.72502       13.66891
N         58.16793       27.89705       11.24102
C         58.41328       28.23478        9.84030
C         58.93017       27.01577        9.07854
O         58.56995       26.83618        7.92377
C         59.33780       29.45451        9.72840
C         59.38646       30.00347        8.32669
O         60.56857       30.18105        7.71085
O         58.35586       30.32662        7.75646
H         58.78765       28.27343       11.97547
H         57.44166       28.56887        9.40512
H         60.35679       29.20801       10.09492
H         58.91513       30.25518       10.37451
N         59.67764       26.06529        9.72904
C         60.07075       24.77237        9.16231
C         58.87795       23.86613        8.83429
O         59.09177       22.77504        8.32402
C         61.03937       24.94895        7.98165
H         59.95459       26.24450       10.70393
H         60.65004       24.22593        9.93700
H         61.91339       25.55020        8.31541
H         61.42881       23.95726        7.66054
H         60.57279       25.44479        7.10725
N         57.59136       24.25434        9.10826
C         56.40164       23.46493        8.81441
C         56.24021       23.19819        7.32445
O         55.33515       22.46575        6.93950
C         56.34336       22.23684        9.74058
C         54.99698       21.56344        9.71509
O         54.90890       20.37306        9.46501
O         53.88522       22.26800       10.00392
H         57.42372       25.15202        9.55333
H         55.52600       24.07576        9.10213
H         56.48463       22.60409       10.78148
H         57.15400       21.51721        9.50866
N         57.02353       23.84241        6.41347
C         56.83272       23.69037        4.99140
C         57.75649       24.57032        4.18100
O         58.66608       25.19853        4.71374
H         57.72631       24.51621        6.73767
H         55.78688       23.98368        4.75346
H         56.98943       22.63224        4.68862
N         57.52057       24.69971        2.85623
C         58.30689       25.53319        1.96576
C         57.53945       26.81328        1.68708
O         56.33981       26.75743        1.45365
C         58.56416       24.73178        0.68375
C         59.32068       25.52895       -0.34146
N         60.57466       25.96712       -0.08698
O         58.79419       25.78258       -1.41413
H         56.69231       24.22102        2.46624
H         59.28879       25.79964        2.42307
H         57.58337       24.42352        0.25807
H         59.13723       23.81051        0.92978
H         61.03506       25.75281        0.80946
H         61.08438       26.51714       -0.79307
N         58.18364       28.01536        1.70646
C         57.49397       29.29433        1.63807
C         57.06877       29.63696        3.03828
O         57.77948       30.36996        3.71318
H         59.20590       28.03179        1.85211
H         56.66446       29.30256        0.89776
H         58.23680       30.05440        1.30938
N         55.98239       29.02682        3.58581
C         55.79228       28.92027        5.02897
C         54.68743       29.80190        5.56752
O         53.85775       30.29207        4.81238
C         55.57713       27.41279        5.34638
C         55.40155       27.08395        6.82933
O         54.45808       26.94734        4.62532
H         55.36244       28.48341        2.96780
H         56.71708       29.26796        5.54218
H         56.49121       26.89690        4.98468
H         54.27625       26.00965        4.89235
H         56.18652       27.55316        7.44942
H         54.39868       27.40942        7.15360
H         55.45270       25.98751        6.97539
N         54.66129       30.06435        6.90914
C         53.65038       30.87030        7.57919
C         52.83456       29.97697        8.49663
O         53.16688       28.81245        8.64863
C         54.31505       32.10183        8.27310
C         53.26581       33.04959        8.90071
C         55.38501       31.68638        9.30418
C         53.82861       34.40276        9.30922
H         55.39818       29.64812        7.49348
H         52.93003       31.24819        6.82039
H         54.81849       32.67178        7.46144
H         52.80997       32.59529        9.80624
H         52.48067       33.25329        8.13857
H         55.85817       32.56671        9.77736
H         54.94994       31.03872       10.09396
H         56.21371       31.14538        8.81533
H         52.99407       35.04656        9.65785
H         54.55081       34.30151       10.14195
H         54.31624       34.88536        8.43703
N         51.65513       30.41101        9.00917
C         50.64840       29.49073        9.51157
C         49.31494       30.19859        9.51743
O         49.05168       30.95423        8.58495
C         51.03267       28.78443       10.84223
C         50.57045       27.34764       10.84111
O         51.53121       26.40752       10.79318
O         49.38836       27.03996       10.78371
H         51.37225       31.37835        8.81626
H         50.56502       28.71840        8.71328
H         50.73249       29.35984       11.74231
H         52.13505       28.71038       10.89984
N         48.39479       29.98865       10.48795
C         47.06020       30.50995       10.36865
C         46.10704       29.40564       10.83003
O         45.49586       28.82051        9.94356
C         46.99013       31.96474       10.88612
C         45.59539       32.48662       10.72227
C         45.06095       32.67211        9.43547
C         44.80231       32.75082       11.84708
C         43.73746       33.08394        9.28114
C         43.47577       33.14837       11.68796
C         42.94070       33.30861       10.40684
H         48.57537       29.29624       11.22380
H         46.82882       30.59295        9.27790
H         47.69307       32.61628       10.31749
H         47.35234       32.03176       11.92467
H         45.66760       32.48989        8.55576
H         45.19797       32.62436       12.84451
H         43.32707       33.21547        8.28885
H         42.86091       33.32093       12.56021
H         41.90926       33.60703       10.28692
N         45.96916       28.95611       12.13107
C         46.24655       29.72206       13.33903
C         47.41795       29.25074       14.20842
O         47.59011       29.80743       15.28460
C         44.94586       29.45937       14.10318
C         44.77550       27.95484       13.88252
C         45.09630       27.82737       12.39960
H         46.36114       30.78838       13.17882
H         44.94402       29.77989       15.16525
H         44.11729       29.98733       13.57429
H         45.56148       27.43454       14.47103
H         43.79072       27.52742       14.16076
H         45.56836       26.85272       12.13891
H         44.15204       27.95804       11.82907
N         48.23177       28.21945       13.84888
C         49.27783       27.69956       14.74107
C         50.54872       28.54327       14.76808
O         51.55065       28.07218       15.29135
C         49.53183       26.19905       14.43260
C         48.33547       25.34609       14.91063
C         48.28390       25.28807       16.41842
O         47.27266       25.87372       17.08784
O         49.17151       24.72324       17.03933
H         48.04250       27.72461       12.96638
H         48.92904       27.72229       15.79572
H         50.43906       25.81475       14.94875
H         49.69392       26.07118       13.34243
H         48.41897       24.30417       14.53733
H         47.39313       25.77688       14.51109
N         50.55724       29.84337       14.35534
C         51.72027       30.68498       14.53069
H         52.57559       30.28324       13.95060
H         51.49288       31.71502       14.18278
H         51.98909       30.73727       15.60938
H         49.71644       30.27332       13.95349
Ca        51.61427       24.26305       10.14260
O         49.50627       22.81721       10.09636
H         48.97066       22.03442        9.82999
H         48.91057       23.39582       10.63572
O         53.82477       25.75857        9.32508
H         53.28121       26.55364        9.13109
H         54.23035       25.96265       10.19901
O         52.77392       23.91652       12.65996
H         52.72350       22.96359       12.92338
H         52.91927       24.40970       13.50488
O         52.06808       22.60637        7.61497
H         51.34080       22.59860        6.94363
H         52.40077       21.67403        7.63396
O         51.06857       25.70544        7.56044
H         51.40429       26.52380        7.11601
H         50.08260       25.77399        7.50306

Ca 1.70



