%chk=loop1.cluster136.chk
%nprocshared=48
%mem=10GB
%nosave
#b3lyp/svp scf=(tight,noincore) Test 
#IOP(5/87=12) Density=Current Pop=(MK,readradii) iop(6/33=2) iop(6/42=6)

loop1.cluster136 

   0  1 
C         46.84868       38.98707        8.43655
C         47.19419       38.80144        6.99313
O         48.25542       39.24234        6.58162
H         45.84922       38.56444        8.66412
H         47.60314       38.45510        9.05383
H         46.85740       40.06507        8.69779
N         46.33138       38.16033        6.15266
C         46.65083       37.87351        4.75821
C         45.88811       38.80614        3.85987
O         45.24357       38.38561        2.91109
C         46.51207       36.36169        4.44618
C         45.13933       35.75567        4.60965
O         44.71278       34.99367        3.75758
O         44.42979       35.93970        5.73813
H         45.41098       37.89379        6.51842
H         47.71535       38.12789        4.56097
H         47.17528       35.81996        5.14235
H         46.87400       36.16087        3.41281
N         45.98078       40.13926        4.11359
C         45.50546       41.17523        3.22335
C         46.60123       42.23570        3.20309
O         46.69376       42.97012        4.17736
C         44.18753       41.76950        3.79232
C         42.98533       40.79964        3.75698
C         42.52466       40.53221        2.31160
C         41.25513       39.67404        2.19610
N         41.48169       38.28360        2.59139
H         46.48717       40.44270        4.95807
H         45.33712       40.77410        2.21128
H         43.90844       42.68916        3.23341
H         44.36086       42.06541        4.85267
H         42.14293       41.28648        4.29794
H         43.23119       39.86014        4.29552
H         43.32540       40.04650        1.72032
H         42.29848       41.51713        1.84905
H         40.94359       39.68466        1.12782
H         40.42826       40.11729        2.79447
H         42.25825       37.87288        2.02309
H         41.70807       38.21707        3.60841
H         40.61091       37.73510        2.40359
N         47.54733       42.35647        2.21815
C         47.70949       41.55965        0.99648
C         46.57015       41.80055        0.00840
O         45.58652       42.42074        0.39196
C         48.06208       40.07201        1.27143
C         49.23284       39.98647        2.20505
O         50.46757       39.71678        1.71402
O         49.07723       40.23758        3.38493
H         48.26023       43.08967        2.36658
H         48.61469       41.98400        0.51004
H         48.39108       39.59033        0.34160
H         47.21271       39.46962        1.63839
N         46.64235       41.46298       -1.31625
C         47.79478       40.82273       -1.94079
C         47.74317       40.95076       -3.45112
O         47.40607       42.02420       -3.92611
H         45.86268       41.75939       -1.92187
H         47.84697       39.76885       -1.63853
H         48.72033       41.35254       -1.63458
N         48.17496       39.96646       -4.29718
C         48.72567       38.68725       -3.86749
C         47.62766       37.74780       -3.42268
O         46.70200       37.48451       -4.17961
C         49.57524       38.06258       -4.99500
C         50.15439       36.72795       -4.59569
O         51.47681       36.60207       -4.37779
O         49.42789       35.75401       -4.47190
H         48.18885       40.18490       -5.30666
H         49.45483       38.85900       -3.04238
H         50.41416       38.76694       -5.19308
H         48.99761       37.94298       -5.93641
N         47.71277       37.15856       -2.20353
C         46.72253       36.21926       -1.71804
C         47.15726       35.72191       -0.37014
O         46.50538       36.01733        0.62166
H         48.52600       37.38054       -1.60607
H         46.62696       35.35422       -2.41188
H         45.74012       36.73448       -1.64618
N         48.28798       34.96705       -0.26152
C         48.82428       34.56459        1.02955
C         49.53278       35.72225        1.69478
O         49.96312       36.66145        1.03487
C         49.77606       33.33808        0.89027
C         48.98374       32.06617        0.57997
O         50.54473       33.11492        2.04691
H         48.78958       34.69440       -1.12186
H         47.98246       34.26738        1.69367
H         50.49827       33.53433        0.06600
H         49.94470       32.83626        2.78364
H         48.26497       31.87228        1.40807
H         48.42165       32.16234       -0.36905
H         49.67804       31.20212        0.51922
N         49.70871       35.67722        3.04089
C         50.43837       36.67582        3.80438
C         51.88842       36.78311        3.37507
O         52.49941       37.75811        3.73432
C         50.36013       36.29803        5.31896
C         50.80310       37.41961        6.27829
C         51.15346       35.00083        5.60689
C         50.28717       37.16580        7.70362
H         49.27499       34.89205        3.54656
H         49.93032       37.64945        3.62725
H         49.28784       36.12950        5.52356
H         50.35727       38.36618        5.93881
H         51.90590       37.54948        6.27591
H         51.01513       34.65295        6.64554
H         50.83894       34.17388        4.94153
H         52.24018       35.17115        5.44605
H         49.18048       37.07236        7.69309
H         50.69380       36.23451        8.13947
H         50.55707       38.01116        8.36814
N         52.51104       35.75708        2.71003
C         53.92936       35.64133        2.35053
C         54.85964       35.63804        3.56202
O         55.45288       34.60772        3.82280
C         54.37547       36.57634        1.20463
C         55.79410       36.18919        0.74520
O         54.34244       37.92096        1.59406
H         51.94613       34.93672        2.48624
H         54.01700       34.62057        1.90620
H         53.67136       36.42053        0.35417
H         54.51455       38.45869        0.77720
H         55.82024       35.12122        0.43432
H         56.10701       36.80799       -0.11936
H         56.52899       36.33297        1.56629
N         55.05114       36.76271        4.31436
C         55.84858       36.89857        5.52593
C         57.32526       36.87566        5.25464
O         57.79392       36.09269        4.43341
C         55.39709       36.04763        6.76246
C         55.80111       36.72113        8.08370
O         55.97015       34.76512        6.79336
H         54.62376       37.62931        3.99836
H         55.63005       37.94730        5.83807
H         54.28495       35.99246        6.78631
H         55.69288       34.26664        5.99819
H         55.43128       36.12125        8.94167
H         56.90029       36.79071        8.18493
H         55.37168       37.74197        8.16103
N         58.13365       37.69741        5.97369
C         59.56615       37.67715        5.92457
C         60.29450       39.00616        5.65856
O         61.48923       38.88766        5.43466
C         60.04868       37.09994        7.27316
C         59.65188       35.62461        7.49877
C         60.38605       34.71683        6.50643
C         60.27553       33.23325        6.85190
N         61.07134       32.45132        5.90480
H         57.69764       38.27414        6.68513
H         59.90018       37.02065        5.09264
H         59.61976       37.72388        8.09009
H         61.15379       37.16232        7.35747
H         58.55706       35.45903        7.42653
H         59.96434       35.35879        8.53109
H         61.46377       34.98312        6.53129
H         59.99724       34.87135        5.47922
H         59.21400       32.90002        6.82150
H         60.66897       33.07033        7.88000
H         62.05799       32.80185        5.88981
H         61.07850       31.44856        6.19593
H         60.66293       32.53200        4.94513
N         59.79073       40.29492        5.66060
C         58.47174       40.85297        5.97123
C         58.05807       40.65680        7.43543
O         57.00001       40.12244        7.71184
C         57.36835       40.59307        4.88936
C         56.11432       41.45778        5.20328
C         54.86750       41.30648        4.37293
O         54.68869       40.31615        3.48043
O         53.94178       42.07182        4.58416
H         60.50158       41.01873        5.45182
H         58.60397       41.95828        5.90497
H         57.10180       39.53494        4.79879
H         57.76959       40.91759        3.90125
H         56.42791       42.52251        5.17547
H         55.73995       41.25666        6.21859
N         58.83315       41.17317        8.43026
C         58.40418       41.15153        9.82018
H         57.39758       40.70020        9.95506
H         59.12896       40.57755       10.42926
H         58.34611       42.19495       10.19640
H         59.72246       41.63399        8.19999
Ca        52.52810       40.08916        2.69054
O         52.52386       40.42514       -0.16627
H         52.18770       39.60427       -0.60556
H         52.62466       41.08444       -0.89659
O         51.14180       41.22256        4.96087
H         50.73661       41.85182        5.60518
H         50.64892       40.38083        5.10836
O         51.51341       42.77027        1.89623
H         50.94093       43.09628        2.63508
H         50.92254       42.77297        1.10213
O         54.76836       41.84759        1.23877
H         55.28572       42.26683        0.50907
H         54.70331       42.55138        1.93186

Ca 1.70



