%chk=loop2.cluster108.chk
%nprocshared=48
%mem=10GB
%nosave
#b3lyp/svp scf=(tight,noincore) Test 
#IOP(5/87=12) Density=Current Pop=(MK,readradii) iop(6/33=2) iop(6/42=6)

loop2.cluster108 

   -2  1 
C         57.96861       50.18872       50.98340
C         57.37516       50.08429       49.60405
O         56.47428       49.28331       49.40113
H         58.82893       50.89203       51.00188
H         57.21128       50.52942       51.71857
H         58.34596       49.18892       51.28892
N         57.86591       50.84935       48.58818
C         57.45457       50.68557       47.19513
C         55.97668       50.90938       46.96606
O         55.42284       51.91128       47.39852
C         58.26661       51.59394       46.25767
C         59.71915       51.19141       46.18672
O         60.47492       51.79476       45.44399
O         60.18653       50.14533       46.89959
H         58.60787       51.53320       48.80427
H         57.68065       49.64164       46.88738
H         58.17144       52.65551       46.57449
H         57.85735       51.49642       45.22749
N         55.29325       49.98741       46.23048
C         53.86793       50.04017       45.96136
C         53.23553       48.79563       46.57499
O         53.96092       47.85533       46.87459
C         53.67294       50.08369       44.43212
H         55.81475       49.18468       45.84441
H         53.42554       50.94579       46.41862
H         54.12355       51.01274       44.02319
H         54.17082       49.21365       43.95149
H         52.61792       50.06581       44.11125
N         51.89737       48.67235       46.79839
C         50.90597       49.71055       46.51358
C         51.00445       50.91634       47.43063
O         51.71800       50.87278       48.42357
C         49.49433       49.09977       46.49265
C         49.15402       48.33629       47.73433
O         49.04004       48.96837       48.91357
O         48.99503       47.12786       47.67144
H         51.57526       47.76589       47.17155
H         51.06579       50.08385       45.49534
H         49.47357       48.38300       45.64346
H         48.72383       49.87572       46.30857
N         50.36250       52.07504       47.08522
C         50.46934       53.29792       47.86900
C         51.29183       54.35030       47.12417
O         51.46460       54.20864       45.92179
H         49.83570       52.10555       46.19901
H         50.93536       53.05300       48.83828
H         49.45010       53.69677       48.08009
N         51.85074       55.44311       47.74104
C         51.79077       55.70115       49.17445
C         53.16978       55.79478       49.80546
O         54.06917       56.43221       49.27623
C         51.01718       56.96781       49.54179
C         49.59698       56.87075       49.06377
N         48.60643       56.52282       49.91914
O         49.34236       57.07068       47.88658
H         52.36988       56.11781       47.15847
H         51.22685       54.90984       49.69654
H         51.50129       57.89821       49.17806
H         51.01397       57.01718       50.65764
H         48.81309       56.30282       50.90542
H         47.63712       56.43487       49.58230
N         53.32621       55.25385       51.03573
C         54.53058       55.37129       51.85035
C         54.44431       54.64951       53.20403
O         55.47439       54.53812       53.85551
H         52.51576       54.75731       51.37954
H         54.77486       56.44247       52.03021
H         55.36875       54.91540       51.28125
N         53.27982       54.10459       53.68369
C         53.19773       53.23598       54.84082
C         52.76202       51.86887       54.39005
O         52.43034       51.68141       53.22680
C         52.16299       53.78589       55.85894
C         52.79037       54.89754       56.69182
O         51.01008       54.23837       55.18277
H         52.39029       54.23586       53.20446
H         54.19141       53.09154       55.31756
H         51.86815       52.97971       56.56622
H         50.39576       54.63913       55.85126
H         53.66999       54.48015       57.22868
H         53.11146       55.74425       56.05291
H         52.06242       55.24971       57.45213
N         52.78752       50.83730       55.26697
C         52.33332       49.50086       54.93525
C         51.37578       48.99474       55.99501
O         51.11653       49.68120       56.98066
C         53.53875       48.55643       54.66613
C         54.12913       48.85196       53.26198
C         54.57925       48.60246       55.79243
C         55.31847       47.96877       52.89013
H         53.16692       51.00771       56.21372
H         51.71723       49.51560       54.00692
H         53.16556       47.52536       54.61023
H         54.43948       49.91174       53.15691
H         53.32159       48.65500       52.51947
H         55.36804       47.84174       55.62013
H         55.05754       49.60221       55.84580
H         54.09624       48.36743       56.76355
H         56.21188       48.26254       53.47664
H         55.10089       46.90280       53.07854
H         55.54977       48.09088       51.81167
N         50.74242       47.81237       55.80081
C         49.59792       47.38231       56.58239
C         49.44563       45.87589       56.54703
O         49.95295       45.22208       55.64738
C         48.32413       48.05733       56.02981
C         48.23396       47.88418       54.53857
O         48.85983       48.75981       53.73283
O         47.78049       46.85567       54.06461
H         50.94159       47.30935       54.92897
H         49.74787       47.66586       57.65010
H         48.37158       49.14693       56.23937
H         47.40626       47.66477       56.51716
N         48.75895       45.25736       57.53677
C         48.60592       43.81052       57.64270
C         49.97728       43.11438       57.72628
O         50.80518       43.56066       58.50855
C         47.76868       43.52376       58.90743
C         47.61566       42.05391       59.15333
C         48.57405       41.37807       59.92445
C         46.54738       41.34195       58.58864
C         48.47210       40.00238       60.12034
C         46.44801       39.96236       58.78855
C         47.41163       39.29302       59.55094
H         48.34816       45.85430       58.27487
H         48.02847       43.43798       56.77172
H         46.76640       43.99628       58.79480
H         48.24094       43.99491       59.79812
H         49.40509       41.91978       60.36074
H         45.80589       41.85274       57.98598
H         49.22001       39.48744       60.70823
H         45.62953       39.41128       58.34584
H         47.33879       38.22475       59.69863
N         50.27714       41.98242       56.99607
C         51.54547       41.26939       57.11824
C         52.66782       41.88872       56.29756
O         53.75884       41.33493       56.26943
C         51.18200       39.86925       56.61417
C         50.14441       40.15059       55.53909
C         49.32463       41.28564       56.15273
H         51.88033       41.18500       58.17460
H         52.04029       39.23730       56.29572
H         50.65267       39.34731       57.44169
H         50.68427       40.54511       54.65105
H         49.53995       39.26821       55.23242
H         48.89231       41.91220       55.34278
H         48.52452       40.87636       56.79884
N         52.47456       43.04508       55.61235
C         53.50309       43.68976       54.80651
C         54.66544       44.23160       55.65138
O         55.61782       44.73475       55.07067
C         52.84474       44.82755       53.99963
C         51.75474       44.31912       53.02882
C         51.00873       45.43229       52.34690
O         50.14320       45.16515       51.52950
O         51.26872       46.71946       52.63794
H         51.54949       43.47625       55.64535
H         53.91340       42.95232       54.08151
H         53.60277       45.35860       53.39555
H         52.39667       45.52251       54.73394
H         50.99428       43.70744       53.55523
H         52.23675       43.68319       52.25792
N         54.66571       44.15304       57.01953
C         55.77645       44.59551       57.84123
H         56.61940       45.00759       57.24893
H         55.42400       45.37364       58.54984
H         56.15641       43.73202       58.42939
H         53.85865       43.75860       57.51701
Ca        49.03006       48.19870       51.57383
O         51.75257       47.81973       49.99077
H         52.36937       48.57841       49.83803
H         52.33292       47.02006       49.95579
O         50.75832       50.28235       51.50611
H         50.73611       50.12929       50.53279
H         50.77699       51.26481       51.58307
O         47.38465       46.30792       50.46136
H         47.82540       46.43540       49.58910
H         46.99803       45.40193       50.40339

Ca 1.70



