%chk=loop2.cluster33.chk
%nprocshared=48
%mem=10GB
%nosave
#b3lyp/svp scf=(tight,noincore) Test 
#IOP(5/87=12) Density=Current Pop=(MK,readradii) iop(6/33=2) iop(6/42=6)

loop2.cluster33 

   -2  1 
C         58.80348       50.84570       17.50915
C         60.13770       50.75437       16.84320
O         60.85647       51.74492       16.80988
H         58.01536       50.51523       16.80459
H         58.79797       50.19577       18.41010
H         58.59910       51.89161       17.82531
N         60.55796       49.57226       16.30548
C         61.89556       49.43812       15.75525
C         62.06658       50.32222       14.52729
O         61.38578       50.12523       13.52959
C         62.25138       47.97621       15.40857
C         63.75564       47.75620       15.41365
O         64.58483       48.72870       15.85747
O         64.20368       46.67016       15.11953
H         59.94088       48.74755       16.35940
H         62.56917       49.74989       16.58141
H         61.78247       47.69589       14.43667
H         61.84109       47.29257       16.18192
N         62.95276       51.34587       14.56340
C         63.17635       52.27098       13.46218
C         63.83118       51.59937       12.26593
O         63.59058       52.02318       11.14440
C         64.08313       53.41286       13.93897
H         63.45475       51.49805       15.43811
H         62.20265       52.72599       13.17382
H         65.10633       53.03759       14.15648
H         64.14738       54.20866       13.16821
H         63.66778       53.86028       14.86863
N         64.75024       50.60457       12.45017
C         65.49498       49.98154       11.35301
C         65.26186       48.47418       11.23756
O         65.79233       47.87771       10.30881
C         66.99305       50.35563       11.43973
C         67.70868       50.01493       12.71448
O         67.08669       49.36937       13.71606
O         68.87864       50.33783       12.84161
H         64.94321       50.29767       13.41221
H         65.15359       50.39481       10.37900
H         67.07143       51.45628       11.30588
H         67.54247       49.87156       10.60345
N         64.40682       47.80585       12.06982
C         63.98862       46.43488       11.80370
C         64.94722       45.35613       12.26168
O         64.70716       44.19976       11.94467
H         63.91294       48.32195       12.80668
H         63.78944       46.33119       10.71354
H         63.02785       46.23982       12.32325
N         66.04424       45.64075       13.01883
C         66.99932       44.60293       13.40490
C         66.51350       43.65066       14.51493
O         67.26086       42.74918       14.87662
C         68.33401       45.24234       13.81434
C         68.30999       45.84928       15.18508
N         69.03512       45.28290       16.17131
O         67.63874       46.84416       15.41284
H         66.24660       46.62087       13.25727
H         67.23260       44.01704       12.48791
H         68.65498       46.00462       13.07135
H         69.09761       44.43686       13.80401
H         69.56865       44.41586       16.00916
H         69.05383       45.70778       17.09621
N         65.29008       43.78399       15.10700
C         64.81791       42.89378       16.15323
C         65.30324       43.19804       17.56691
O         65.04554       42.38119       18.43441
H         64.62865       44.47030       14.74047
H         65.01954       41.83907       15.86751
H         63.71178       42.98965       16.22590
N         65.90002       44.38738       17.90304
C         66.05948       44.77571       19.32177
C         65.75040       46.25632       19.54145
O         65.55481       46.99347       18.58944
C         67.46513       44.43531       19.89392
C         67.78335       42.93410       19.86583
O         68.44247       45.18901       19.23149
H         66.03434       45.09533       17.16985
H         65.29276       44.24746       19.92705
H         67.49657       44.72741       20.96393
H         69.28006       44.66521       19.13798
H         67.83449       42.56000       18.82324
H         68.77159       42.76670       20.34918
H         67.02247       42.36970       20.44244
N         65.72451       46.74842       20.82005
C         65.49911       48.15553       21.11906
C         66.82669       48.75945       21.50758
O         67.50324       48.23605       22.38137
C         64.49613       48.37161       22.29564
C         63.21483       47.52652       22.15628
C         64.15440       49.87628       22.40929
C         62.32458       47.62574       23.40212
H         65.92205       46.11775       21.60628
H         65.09090       48.67725       20.22523
H         64.99019       48.04091       23.23682
H         63.51041       46.46051       22.06910
H         62.64211       47.81117       21.24778
H         65.06553       50.46438       22.59969
H         63.68092       50.23912       21.47118
H         63.47696       50.10293       23.25300
H         62.91468       47.38598       24.31455
H         61.88291       48.63604       23.51620
H         61.48965       46.90176       23.32465
N         67.20983       49.92806       20.94053
C         68.39190       50.66691       21.35533
C         67.93374       51.85363       22.16371
O         66.74709       52.11490       22.21382
C         69.31690       50.98200       20.14793
C         68.63225       51.33976       18.84091
O         68.93781       52.35874       18.24059
O         67.69847       50.49516       18.32866
H         66.55637       50.37951       20.28834
H         68.99300       50.07324       22.07975
H         69.85870       50.04413       19.91453
H         70.07919       51.73866       20.44167
N         68.80478       52.54645       22.94008
C         68.35555       53.55199       23.89633
C         67.52560       54.66950       23.24948
O         66.46188       54.95355       23.77723
C         69.53814       54.05268       24.74915
C         69.12318       55.13263       25.71697
C         69.73504       56.39345       25.64922
C         68.11761       54.90306       26.67561
C         69.33909       57.41509       26.51340
C         67.71992       55.93238       27.53382
C         68.32815       57.18790       27.45047
H         69.80633       52.29829       22.90352
H         67.67150       53.04806       24.61899
H         70.34666       54.42425       24.09094
H         69.95342       53.19141       25.31984
H         70.51448       56.58460       24.92208
H         67.63391       53.93726       26.75026
H         69.81306       58.38524       26.45046
H         66.93646       55.75833       28.26016
H         68.01652       57.98519       28.11157
N         67.89824       55.31550       22.09748
C         67.05266       56.31381       21.44939
C         65.62091       55.83343       21.22267
O         64.68396       56.54354       21.56362
C         67.74963       56.53412       20.09667
C         69.20337       56.21501       20.39184
C         69.11820       55.05037       21.37272
H         67.06975       57.24162       22.06170
H         67.41332       55.76597       19.36781
H         67.57154       57.54073       19.65839
H         69.83191       56.01246       19.49686
H         69.62240       57.08642       20.93919
H         69.02399       54.07394       20.85433
H         70.02561       55.07679       22.00817
N         65.38739       54.61402       20.66260
C         64.04836       54.07515       20.41561
C         63.26327       53.92763       21.70525
O         62.09085       54.27144       21.73164
C         64.14795       52.72734       19.68132
C         64.76914       52.95259       18.29683
C         64.98471       51.70172       17.54576
O         65.50858       51.77049       16.44723
O         64.63741       50.50539       18.06547
H         66.20759       54.03471       20.41888
H         63.48059       54.75412       19.73997
H         63.13535       52.28315       19.54046
H         64.76367       52.01741       20.27371
H         65.76516       53.42920       18.37860
H         64.10677       53.60622       17.68939
N         63.85635       53.43383       22.82365
C         63.16979       53.33851       24.08970
H         62.23298       52.75673       23.97668
H         63.82497       52.82494       24.82642
H         62.94742       54.35813       24.47063
H         64.83380       53.15027       22.78935
Ca        66.65630       49.50945       16.50462
O         68.65225       48.00631       17.93997
H         68.42183       47.56793       18.79369
H         69.62103       48.19291       18.00602
O         69.43554       49.99366       15.97344
H         70.11776       50.70211       16.06126
H         68.81339       50.34813       15.29510

Ca 1.70



