%chk=loop3.cluster120.chk
%nprocshared=48
%mem=10GB
%nosave
#b3lyp/svp scf=(tight,noincore) Test 
#IOP(5/87=12) Density=Current Pop=(MK,readradii) iop(6/33=2) iop(6/42=6)

loop3.cluster120 

   0  1 
C         92.19688       69.36634       22.91891
C         93.65457       68.92166       22.78747
O         93.71996       67.67965       22.15439
H         91.52436       68.49562       23.05996
H         92.09404       70.04634       23.79066
H         91.87497       69.91541       22.00638
N         94.39522       69.91952       22.00900
C         95.83789       69.64967       21.91018
C         96.54552       69.78323       23.24646
O         96.62151       68.80504       23.97433
C         96.46762       70.45963       20.74429
C         96.04615       71.91205       20.56091
O         96.08065       72.39742       19.44221
O         95.53547       72.64783       21.56727
H         94.24407       70.85862       22.43775
H         95.99284       68.59001       21.60536
H         96.11699       69.95537       19.81922
H         97.57689       70.36234       20.73489
N         97.10408       70.95680       23.63299
C         97.83434       71.10347       24.87350
C         99.10879       70.28580       24.80195
O         99.92173       70.52662       23.92074
C         98.15329       72.59663       25.08338
C         98.79341       72.86354       26.44337
C         99.04175       74.36059       26.64893
C         99.40909       74.63068       28.11103
N         99.70279       76.04449       28.33090
H         97.02228       71.77471       23.03032
H         97.18440       70.77292       25.71593
H         97.18970       73.15546       25.04856
H         98.80001       72.97424       24.26045
H         99.75790       72.31791       26.54062
H         98.09036       72.49444       27.22056
H         98.11781       74.93556       26.41694
H         99.85010       74.69931       25.96252
H        100.28999       74.01982       28.40697
H         98.54433       74.33365       28.74732
H        100.58015       76.30484       27.82516
H         98.90995       76.63966       27.99735
H         99.83889       76.20503       29.35499
N         99.35805       69.31575       25.72480
C        100.61864       68.57529       25.72844
C        100.74431       67.56644       24.58717
O        101.83479       67.03224       24.40767
C        100.86975       67.91798       27.09945
C         99.86363       66.86472       27.45643
O        100.08488       65.69352       27.19353
O         98.72850       67.20306       28.09917
H         98.67936       69.16998       26.48390
H        101.43408       69.32403       25.61038
H        100.85743       68.70181       27.88815
H        101.88646       67.46881       27.11469
N         99.70388       67.25510       23.76060
C         99.88170       66.35190       22.62911
C         98.64757       66.20226       21.75550
O         97.59404       66.70138       22.12294
H         98.78754       67.69090       23.92625
H        100.18407       65.34528       22.99597
H        100.69053       66.77139       22.00745
N         98.66510       65.52256       20.57010
C         99.86550       64.95905       19.95667
C         99.47466       63.85929       18.97206
O         98.76644       64.15704       18.02018
C        100.62562       66.05688       19.17058
C        101.79779       65.48067       18.40504
N        101.86828       65.60617       17.05747
O        102.67792       64.88199       19.00445
H         97.78429       65.45424       20.04185
H        100.53730       64.56445       20.73794
H        100.99993       66.84279       19.85251
H         99.92535       66.54820       18.45867
H        101.13885       66.11349       16.53504
H        102.65643       65.19432       16.53601
N         99.94364       62.57889       19.06283
C        100.75920       62.05397       20.14653
C         99.91916       61.80092       21.38251
O         99.43566       62.73880       21.99435
H         99.71996       61.93262       18.28944
H        101.65079       62.68428       20.34578
H        101.15754       61.07428       19.80484
N         99.67663       60.51846       21.77429
C         98.80898       60.14084       22.88387
C         99.54578       59.21893       23.83518
O        100.17434       58.26366       23.39661
C         97.62026       59.34354       22.34342
C         96.57524       60.15550       21.63068
C         95.54103       60.75841       22.36698
C         96.55456       60.21818       20.23190
C         94.47897       61.38372       21.70910
C         95.49510       60.84953       19.57444
C         94.44333       61.41601       20.31164
O         93.38722       61.97212       19.68512
H        100.08934       59.75301       21.21989
H         98.41264       61.02011       23.44276
H         97.09127       58.84028       23.18217
H         97.99045       58.52404       21.68997
H         95.54120       60.70505       23.44691
H         97.34506       59.75711       19.65402
H         93.66795       61.81473       22.28351
H         95.47815       60.87434       18.49304
H         93.30135       61.95079       18.72126
N         99.43590       59.41049       25.17660
C        100.08916       58.55248       26.16431
C         99.40034       57.18445       26.33270
O         99.81808       56.41173       27.18392
C        100.16015       59.34969       27.50073
C         98.81295       59.31246       28.26624
C        101.33142       58.87160       28.37600
C         98.64157       60.45835       29.25530
H         98.89599       60.22640       25.50557
H        101.13775       58.40271       25.82457
H        100.40542       60.39926       27.21979
H         98.72543       58.33416       28.78943
H         97.96539       59.40218       27.55993
H        102.27728       58.92823       27.79328
H        101.45334       59.52361       29.26273
H        101.19332       57.82611       28.71597
H         98.49555       61.40454       28.68963
H         97.73272       60.27686       29.86760
H         99.51339       60.56198       29.92826
N         98.32712       56.82728       25.56468
C         97.59624       55.58132       25.76431
C         96.61515       55.69207       26.92109
O         96.11553       54.66685       27.36725
C         96.83586       55.22525       24.47958
O         97.75996       55.05216       23.43987
H         98.00390       57.45294       24.82055
H         98.31956       54.75863       25.96722
H         96.13813       56.05602       24.22319
H         96.25445       54.28769       24.62972
H         97.25789       54.66578       22.67768
N         96.23055       56.91172       27.40824
C         95.26665       57.04728       28.49509
C         94.80673       58.48418       28.71154
O         95.44692       59.41947       28.25284
C         95.89689       56.56490       29.81413
H         96.58364       57.75847       26.94898
H         94.36737       56.44608       28.23418
H         96.79370       57.18439       30.04347
H         95.18451       56.66575       30.66009
H         96.21786       55.50622       29.75775
N         93.68414       58.71196       29.45445
C         93.27519       60.01563       29.96869
C         93.14774       61.15521       28.95674
O         93.11353       62.30487       29.37577
C         94.16920       60.36822       31.15955
H         93.14452       57.89502       29.77896
H         92.26395       59.89930       30.41539
H         93.78263       61.26930       31.68143
H         94.13880       59.52475       31.88630
H         95.21905       60.53302       30.84626
N         92.98376       60.91336       27.62425
C         92.76126       61.97809       26.64487
C         91.43803       61.84418       25.91268
O         91.10259       62.74557       25.15344
C         93.87643       61.92391       25.58678
C         95.22568       62.41617       26.10815
C         95.12436       63.86047       26.49859
O         94.67503       64.67463       25.70861
O         95.49152       64.25769       27.73052
H         93.00034       59.94136       27.28777
H         92.73325       62.97976       27.13176
H         93.61692       62.56084       24.71203
H         93.96101       60.88027       25.21312
H         95.96369       62.31640       25.28676
H         95.57750       61.81000       26.96827
N         90.65307       60.74038       26.03356
C         89.46614       60.57934       25.22722
H         88.73003       61.37729       25.45728
H         89.74351       60.62712       24.15069
H         89.01419       59.58680       25.42777
H         90.91801       59.97209       26.66156
Ca        95.11951       66.46854       23.49524
O         97.12268       66.01137       25.52368
H         96.65641       66.15303       26.38268
H         98.06681       66.18710       25.73306
O         92.83392       64.88317       23.42787
H         92.11619       65.06891       24.08310
H         92.36883       64.75787       22.56413
O         96.99056       63.96127       23.46134
H         97.64360       63.75881       24.17776
H         97.18871       63.30594       22.74881
O         94.40887       67.67265       25.95155
H         94.12059       67.13990       26.73393
H         95.27933       68.06051       26.21931
O         95.06621       65.20091       21.02254
H         94.33284       64.64213       20.66656
H         95.54895       65.52004       20.22187

Ca 1.70



