%chk=loop2.cluster39.chk
%nprocshared=48
%mem=10GB
%nosave
#b3lyp/svp scf=(tight,noincore) Test 
#IOP(5/87=12) Density=Current Pop=(MK,readradii) iop(6/33=2) iop(6/42=6)

loop2.cluster39 

   -2  1 
C         55.74442       50.47003       15.82063
C         56.85257       50.25884       14.83725
O         57.66374       51.15029       14.63224
H         54.76858       50.18613       15.37627
H         55.94024       49.81541       16.69904
H         55.71275       51.52282       16.16759
N         56.97604       49.05456       14.22596
C         58.15194       48.68650       13.45367
C         58.36491       49.54522       12.21353
O         57.46389       49.68205       11.39833
C         58.06160       47.22609       13.04845
C         59.35973       46.62189       12.59552
O         60.61216       47.05077       12.93327
O         59.27030       45.65274       11.87578
H         56.24780       48.34197       14.40135
H         59.01464       48.76081       14.13164
H         57.32706       47.14156       12.21297
H         57.64719       46.58207       13.84451
N         59.60005       50.06091       11.97915
C         59.96681       50.81910       10.78915
C         60.84310       49.98730        9.85591
O         61.32934       50.53097        8.86899
C         60.73949       52.05908       11.26429
H         60.35107       49.84017       12.64499
H         59.07520       51.14198       10.20915
H         61.61189       51.75027       11.88482
H         61.11978       52.65462       10.40836
H         60.08442       52.70551       11.88512
N         61.10417       48.66838       10.10461
C         62.06399       47.87730        9.34553
C         61.49794       46.57819        8.78116
O         62.20546       45.90905        8.04411
C         63.19406       47.44593       10.30430
C         63.75909       48.57961       11.10646
O         63.69395       48.54459       12.45060
O         64.27379       49.53396       10.55073
H         60.66761       48.22700       10.91493
H         62.48739       48.48182        8.51356
H         64.00526       46.93947        9.74009
H         62.77638       46.71660       11.02802
N         60.28726       46.09171        9.18372
C         59.87435       44.73299        8.87174
C         60.78310       43.68694        9.50795
O         60.79022       42.56339        9.02240
H         59.66767       46.65867        9.76872
H         59.84250       44.60137        7.76906
H         58.84748       44.55001        9.25808
N         61.51258       43.95189       10.64401
C         62.36309       42.94830       11.29140
C         61.74036       42.39942       12.58719
O         62.19359       41.37853       13.08505
C         63.78709       43.50673       11.49126
C         63.95685       44.28819       12.77154
N         64.87280       43.87925       13.67968
O         63.26632       45.26986       13.00078
H         61.44395       44.87962       11.07860
H         62.45391       42.08629       10.59610
H         64.07287       44.13117       10.61569
H         64.49163       42.65128       11.52897
H         65.46712       43.05933       13.49946
H         64.99406       44.37284       14.56394
N         60.64632       43.00357       13.13682
C         59.82260       42.43359       14.18527
C         60.34119       42.49735       15.60153
O         59.66683       41.96236       16.46724
H         60.29715       43.85129       12.70716
H         59.54672       41.39772       13.90267
H         58.87758       43.02257       14.22439
N         61.46412       43.19178       15.94347
C         61.86433       43.35769       17.34457
C         61.82779       44.82775       17.70244
O         62.24431       45.64340       16.89794
C         63.25847       42.75810       17.61742
C         63.30298       41.27763       17.22006
O         64.24199       43.47153       16.91862
H         62.02090       43.65699       15.21195
H         61.17161       42.82550       18.03165
H         63.44474       42.84958       18.71442
H         65.10570       42.99708       17.03525
H         62.49291       40.70726       17.71977
H         63.19818       41.18236       16.11825
H         64.27940       40.84146       17.51858
N         61.31063       45.24901       18.89233
C         61.30519       46.66575       19.23536
C         62.72102       47.06167       19.58805
O         63.27848       46.56138       20.55584
C         60.28417       47.00457       20.35041
C         58.87559       46.54093       19.89533
C         60.27832       48.52357       20.64410
C         57.80936       46.71101       20.96867
H         60.94596       44.55904       19.56364
H         60.95473       47.23556       18.34694
H         60.57614       46.45984       21.27456
H         58.90223       45.46021       19.65032
H         58.56619       47.08518       18.97361
H         61.28401       48.88130       20.93563
H         59.94511       49.09817       19.75200
H         59.60648       48.76496       21.49199
H         58.13064       46.19592       21.89825
H         57.61861       47.78226       21.17726
H         56.86201       46.25542       20.61319
N         63.35916       47.97019       18.81262
C         64.69320       48.47240       19.09768
C         64.59429       49.59353       20.10392
O         63.49615       50.02338       20.40227
C         65.46485       48.81503       17.78240
C         64.64131       49.37084       16.61665
O         64.90621       50.46126       16.13823
O         63.68748       48.58947       16.03766
H         62.79575       48.43354       18.09598
H         65.28490       47.69450       19.63203
H         65.89534       47.87038       17.40352
H         66.33805       49.46002       18.01999
N         65.69554       50.03532       20.76933
C         65.64304       51.06712       21.80300
C         65.15841       52.41478       21.24344
O         64.32124       53.02568       21.88507
C         67.00557       51.15785       22.53463
C         67.04052       52.16883       23.65968
C         67.95407       53.23539       23.60913
C         66.18616       52.04864       24.77280
C         68.00460       54.17252       24.64415
C         66.24124       52.99126       25.80677
C         67.14749       54.05318       25.74035
H         66.60250       49.58441       20.56256
H         64.91470       50.75003       22.58568
H         67.80773       51.38446       21.80730
H         67.23621       50.15974       22.97123
H         68.62770       53.33920       22.76799
H         65.48402       51.22777       24.84319
H         68.71040       54.99143       24.59548
H         65.58271       52.89838       26.66125
H         67.18858       54.78216       26.53964
N         65.60374       52.93265       20.04849
C         65.12255       54.20421       19.50774
C         63.64850       54.14097       19.16015
O         62.90674       55.07826       19.42975
C         65.97903       54.37857       18.23882
C         67.22311       53.55377       18.55770
C         66.60089       52.33115       19.20078
H         65.35829       55.02134       20.22177
H         65.49196       53.87576       17.37213
H         66.16804       55.43895       17.96512
H         67.86555       53.33106       17.68026
H         67.82232       54.07649       19.33649
H         66.08339       51.75017       18.40368
H         67.34526       51.69103       19.70120
N         63.15805       53.02205       18.56885
C         61.75478       52.79822       18.25918
C         60.91444       52.74351       19.53166
O         59.76334       53.15185       19.51613
C         61.69092       51.48812       17.47150
C         60.30889       51.10545       16.97109
C         60.49647       49.99234       16.02001
O         61.07304       50.19748       14.96371
O         60.08645       48.75771       16.34535
H         63.82579       52.25982       18.36288
H         61.38145       53.60044       17.58456
H         62.09606       50.64645       18.07767
H         62.36370       51.62956       16.59301
H         59.81085       51.93234       16.42365
H         59.67831       50.77951       17.82348
N         61.45295       52.24462       20.67650
C         60.74798       52.17251       21.93398
H         59.80422       51.60112       21.82396
H         61.39055       51.64603       22.67599
H         60.55093       53.19602       22.31230
H         62.41603       51.92555       20.66308
Ca        62.03386       47.81409       14.59331
O         59.48543       45.75475       15.56202
H         58.51676       45.88563       15.70244
H         59.89461       46.40409       16.17975
O         64.80284       46.31675       15.74856
H         64.53270       45.83245       16.56229
H         65.78787       46.25788       15.76409

Ca 1.70



