%chk=loop3.cluster124.chk
%nprocshared=48
%mem=10GB
%nosave
#b3lyp/svp scf=(tight,noincore) Test 
#IOP(5/87=12) Density=Current Pop=(MK,readradii) iop(6/33=2) iop(6/42=6)

loop3.cluster124 

   0  1 
C         88.28814       78.51238       23.16709
C         89.75012       78.31208       22.90737
O         90.38098       77.56154       23.63364
H         87.77620       77.52738       23.16351
H         88.14231       79.00097       24.15256
H         87.82910       79.14652       22.38054
N         90.35434       78.95407       21.86605
C         91.76140       78.77180       21.51925
C         92.67655       79.10494       22.68343
O         93.00220       78.19249       23.41489
C         92.16143       79.48186       20.19493
C         91.64669       80.89475       20.01111
O         90.49618       81.07981       19.64417
O         92.48461       81.94480       20.09401
H         89.77446       79.57548       21.29418
H         91.91881       77.68946       21.32588
H         91.75410       78.89767       19.34388
H         93.26887       79.45712       20.09348
N         93.08091       80.38157       22.94070
C         93.90381       80.79806       24.08124
C         95.36771       80.34079       23.96744
O         96.26443       81.15506       23.78529
C         93.71492       82.32401       24.24536
C         94.28069       82.89971       25.54816
C         93.85655       84.36870       25.69881
C         94.48694       85.00081       26.94407
N         94.00658       86.36862       27.14397
H         92.72221       81.11985       22.33071
H         93.48198       80.36531       25.01016
H         92.61458       82.49930       24.27148
H         94.13059       82.86534       23.36743
H         95.38636       82.81612       25.54661
H         93.87749       82.32967       26.41538
H         92.74659       84.42026       25.77232
H         94.17722       84.94736       24.80436
H         95.59131       85.00953       26.81121
H         94.24375       84.39722       27.84646
H         93.00139       86.35161       27.43387
H         94.56716       86.81865       27.90315
H         94.11010       86.93101       26.26828
N         95.66252       79.02803       24.17774
C         96.99092       78.44059       24.23634
C         97.17323       77.24858       23.28536
O         98.27636       76.72433       23.22779
C         97.26997       78.03868       25.70758
C         96.27023       77.10331       26.36516
O         96.42906       76.77888       27.66022
O         95.31716       76.64958       25.75499
H         94.89539       78.42025       24.42187
H         97.75982       79.19128       23.94320
H         97.27695       78.97579       26.30576
H         98.27664       77.57861       25.78313
N         96.16218       76.77585       22.49218
C         96.41061       75.73258       21.49764
C         95.14647       75.36209       20.73401
O         94.37565       76.25883       20.42433
H         95.22283       77.18533       22.56179
H         96.85819       74.85271       21.99562
H         97.14252       76.13398       20.76844
N         94.84286       74.07591       20.36358
C         95.78375       72.95239       20.43966
C         95.05849       71.63273       20.16094
O         94.22138       71.60357       19.27030
C         96.86449       73.14609       19.33993
C         98.07100       72.25975       19.52657
N         98.23418       71.13269       18.79429
O         98.91695       72.57119       20.35189
H         93.92644       73.91991       19.91378
H         96.23090       72.91069       21.44758
H         97.24668       74.18625       19.31947
H         96.40323       72.97814       18.34005
H         97.51842       70.83410       18.11689
H         99.06919       70.54232       18.93188
N         95.36448       70.46425       20.79871
C         96.38733       70.30068       21.81593
C         95.91186       70.71922       23.17284
O         94.84290       71.30918       23.28540
H         94.86897       69.61030       20.49457
H         97.35551       70.75424       21.53231
H         96.56856       69.20809       21.90845
N         96.60461       70.33145       24.27963
C         96.03082       70.41689       25.61328
C         97.10406       70.43418       26.68616
O         97.91794       69.51887       26.76023
C         95.12727       69.19649       25.89199
C         93.91931       69.08496       24.99379
C         92.71707       69.73584       25.32547
C         93.97739       68.29613       23.83360
C         91.58920       69.58874       24.50891
C         92.85379       68.15989       23.01536
C         91.65344       68.80049       23.35395
O         90.55849       68.65936       22.57914
H         97.45163       69.75220       24.14322
H         95.40991       71.33765       25.70404
H         94.76554       69.23998       26.94248
H         95.73177       68.26674       25.80994
H         92.64980       70.34291       26.22046
H         94.89618       67.79136       23.56355
H         90.66219       70.08136       24.77644
H         92.91454       67.55052       22.12277
H         90.56802       68.11190       21.78050
N         97.09620       71.42406       27.61425
C         97.95248       71.44745       28.79968
C         97.67076       70.22929       29.68915
O         98.59709       69.69914       30.28679
C         97.71577       72.79575       29.54513
C         96.30526       72.84633       30.17858
C         98.80348       73.09300       30.58873
C         95.78147       74.25087       30.41221
H         96.40762       72.18226       27.48965
H         99.01338       71.42686       28.45742
H         97.79149       73.58570       28.76482
H         96.33440       72.29873       31.13681
H         95.55677       72.38027       29.50789
H         99.79742       73.14678       30.09590
H         98.61513       74.07313       31.07349
H         98.83426       72.30867       31.37415
H         95.77249       74.80035       29.44733
H         94.73438       74.18030       30.77883
H         96.39322       74.79121       31.15790
N         96.40278       69.70914       29.77023
C         96.06933       68.48692       30.49181
C         95.03266       68.70171       31.60349
O         94.63304       67.71880       32.20757
C         95.55841       67.45151       29.47631
O         96.52964       67.25071       28.48481
H         95.64368       70.15853       29.23961
H         96.97203       68.04900       30.97426
H         94.61722       67.81788       29.00965
H         95.36399       66.48793       30.00030
H         96.20325       66.50394       27.91907
N         94.61186       69.95284       31.98304
C         93.77163       70.16364       33.16485
C         92.68388       71.21496       32.97563
O         92.97445       72.31977       32.54044
C         94.63952       70.61542       34.34193
H         95.00480       70.77128       31.52324
H         93.31632       69.20754       33.49232
H         95.45890       69.88723       34.51527
H         95.07499       71.62427       34.17796
H         94.00951       70.64544       35.25962
N         91.42165       70.95523       33.43819
C         90.36731       71.96287       33.59662
C         89.88847       72.63007       32.31336
O         89.12116       73.58154       32.39733
C         90.76999       72.98773       34.66827
H         91.22709       70.01801       33.81560
H         89.47769       71.45128       34.02312
H         91.03672       72.45432       35.60740
H         91.62591       73.61714       34.35351
H         89.90481       73.64674       34.90247
N         90.24924       72.16455       31.08821
C         89.72667       72.72850       29.84809
C         88.33207       72.19858       29.57253
O         87.44483       72.98930       29.28356
C         90.68043       72.40332       28.68034
C         92.06567       73.07264       28.82054
C         92.04797       74.56299       28.58741
O         92.69719       75.03770       27.66992
O         91.35429       75.38457       29.39795
H         90.85011       71.32888       31.02666
H         89.65298       73.83163       29.91617
H         90.23471       72.72052       27.71239
H         90.81933       71.30104       28.64354
H         92.73420       72.62353       28.05494
H         92.50376       72.86324       29.81824
N         88.06794       70.86230       29.65021
C         86.75731       70.30191       29.37721
H         86.01286       71.07022       29.07856
H         86.84491       69.56492       28.55246
H         86.37664       69.78311       30.28233
H         88.81893       70.21478       29.92939
Ca        92.30622       75.99319       24.99379
O         89.86814       76.16198       26.32297
H         89.02688       76.64156       26.51673
H         90.37735       76.21474       27.16768
O         91.27463       73.29021       25.18642
H         91.61835       72.71940       24.45461
H         90.29082       73.27239       25.07890
O         94.21717       74.18231       24.65323
H         94.63296       73.59386       23.98237
H         94.82442       74.15872       25.43283
O         92.28028       78.36045       26.31208
H         92.99681       78.58804       26.95480
H         91.79791       79.20673       26.14150
O         92.03593       75.00358       22.41477
H         92.18591       74.04810       22.21147
H         92.39447       75.48042       21.62973

Ca 1.70



