%chk=loop1.cluster146.chk
%nprocshared=48
%mem=10GB
%nosave
#b3lyp/svp scf=(tight,noincore) Test 
#IOP(5/87=12) Density=Current Pop=(MK,readradii) iop(6/33=2) iop(6/42=6)

loop1.cluster146 

   0  1 
C         28.80886       18.93132       23.99732
C         27.99466       17.77435       23.50294
O         28.48556       16.99684       22.70199
H         29.79799       18.95605       23.49186
H         28.27977       19.88640       23.79492
H         28.96828       18.82551       25.09065
N         26.70991       17.61837       23.91924
C         25.86600       16.50757       23.48546
C         24.85442       16.94119       22.42652
O         23.92551       16.18890       22.16580
C         25.18832       15.82270       24.70667
C         24.26582       16.70234       25.50770
O         23.06933       16.45939       25.54329
O         24.76355       17.70495       26.25713
H         26.30492       18.34683       24.52501
H         26.47097       15.71043       23.00286
H         25.95676       15.41944       25.40042
H         24.60200       14.95610       24.32957
N         24.97249       18.13982       21.76877
C         23.93745       18.64824       20.86686
C         24.51857       19.16297       19.54201
O         25.28701       20.11309       19.60883
C         23.29613       19.86776       21.56675
C         22.71144       19.53646       22.94732
C         22.25257       20.82159       23.65133
C         21.63135       20.57854       25.03673
N         22.56641       19.94750       25.96681
H         25.76719       18.75936       21.98326
H         23.15848       17.88504       20.70247
H         22.50705       20.30677       20.91903
H         24.08959       20.63636       21.71983
H         23.49919       19.06803       23.57146
H         21.86803       18.82350       22.83055
H         21.49527       21.32967       23.01738
H         23.12455       21.50407       23.76745
H         20.72326       19.94444       24.93765
H         21.32582       21.56328       25.45159
H         22.13913       19.91136       26.91987
H         22.73906       18.96921       25.66273
H         23.46652       20.47886       26.01288
N         24.21904       18.68030       18.28818
C         23.55686       17.42815       17.90926
C         22.08108       17.27396       18.21037
O         21.53858       18.05280       18.97663
C         24.37477       16.27743       18.46990
C         25.76305       16.29703       17.91800
O         26.06979       16.95528       16.93469
O         26.65089       15.49727       18.47462
H         24.63831       19.19626       17.49758
H         23.60294       17.39389       16.79858
H         23.92761       15.29214       18.26534
H         24.42744       16.34763       19.57034
N         21.31793       16.31809       17.57895
C         21.76978       15.49822       16.44543
C         21.01452       14.18443       16.35527
O         19.79532       14.22319       16.45650
H         20.30395       16.33088       17.77311
H         22.86102       15.37388       16.37378
H         21.47516       16.05359       15.52865
N         21.60105       12.97970       16.07055
C         23.02503       12.76393       15.80660
C         23.86175       12.78939       17.07233
O         24.90058       13.43075       17.06217
C         23.29608       11.51125       14.93084
C         22.80172       10.18924       15.45433
O         23.67914        9.20663       15.72782
O         21.60524        9.96567       15.54279
H         20.96462       12.18290       15.94833
H         23.39542       13.57424       15.13932
H         24.39619       11.44357       14.77066
H         22.83539       11.66884       13.92953
N         23.46136       12.17701       18.22360
C         24.20414       12.35280       19.46680
C         25.57421       11.70701       19.41773
O         25.64299       10.48766       19.40109
H         22.56906       11.65833       18.24237
H         23.63820       11.91383       20.31772
H         24.29027       13.44081       19.67153
N         26.71294       12.47232       19.43045
C         28.06696       11.91135       19.44984
C         29.15439       13.03197       19.66091
O         29.76809       13.43470       18.45733
C         28.33824       11.01878       18.20435
C         29.73705       10.39754       18.21515
O         28.16324       11.74926       17.01874
H         26.60692       13.48652       19.48007
H         28.09530       11.26546       20.35185
H         27.64057       10.15560       18.20555
H         27.19018       11.75554       16.82017
H         30.53233       11.16384       18.11865
H         29.89686        9.83469       19.15818
H         29.83836        9.70288       17.35642
N         30.21450       12.55789       20.55894
C         31.21208       13.59030       20.89087
C         32.48261       12.90786       21.33876
O         32.63246       12.57924       22.50608
C         30.70267       14.71351       21.86191
C         31.81852       15.71459       22.28135
C         30.04682       14.16219       23.14303
C         32.49610       16.42688       21.11580
H         29.84011       12.10385       21.41927
H         31.48624       14.11370       19.94907
H         29.91424       15.27968       21.32152
H         32.60144       15.19424       22.87604
H         31.37250       16.49825       22.93113
H         30.76352       13.58335       23.75787
H         29.66855       14.99667       23.76847
H         29.16806       13.53083       22.90670
H         33.03435       15.70525       20.48546
H         31.75031       16.96404       20.49932
H         33.24107       17.15452       21.50255
N         33.44845       12.65253       20.41597
C         34.77469       12.15035       20.74880
C         35.85622       13.07352       20.16890
O         37.02870       12.74067       20.25788
C         34.92470       10.70301       20.21860
C         34.92628       10.60628       18.69006
O         33.88269        9.90297       20.71649
H         33.23473       12.83618       19.42287
H         34.90932       12.10068       21.85223
H         35.90265       10.29200       20.56192
H         34.08483        9.72271       21.67131
H         33.98474       10.99863       18.25473
H         35.78419       11.16613       18.27171
H         35.04234        9.54598       18.38538
N         35.51514       14.24226       19.53789
C         36.41329       15.11603       18.79368
C         36.77436       14.48869       17.45628
O         36.65093       13.28345       17.29671
C         37.64489       15.61431       19.59508
C         37.24904       16.17596       20.96577
O         38.29130       16.62076       18.85887
H         34.53642       14.53644       19.53092
H         35.79882       16.00986       18.53759
H         38.34690       14.76360       19.74837
H         39.20519       16.71842       19.23397
H         36.51436       17.00065       20.85535
H         36.81163       15.37944       21.60347
H         38.15105       16.56592       21.48487
N         37.16237       15.28190       16.41753
C         37.60286       14.75864       15.13329
C         36.71314       14.94073       13.88596
O         37.05986       14.27491       12.91847
C         38.98283       15.37149       14.80480
C         40.07875       15.11357       15.84418
C         40.37461       13.61467       16.02004
C         41.55375       13.35433       16.96685
N         42.83688       13.75218       16.38111
H         37.26343       16.27794       16.59416
H         37.69771       13.65555       15.21336
H         38.85807       16.47450       14.71061
H         39.34848       14.99364       13.82640
H         39.80132       15.55558       16.82553
H         40.97556       15.64854       15.47449
H         40.57714       13.13545       15.03725
H         39.47936       13.13477       16.46744
H         41.59453       12.26377       17.18286
H         41.38187       13.88788       17.92741
H         43.58891       13.61987       17.09419
H         43.04876       13.14840       15.55323
H         42.84165       14.75388       16.09161
N         35.62720       15.76510       13.70034
C         34.98539       16.72054       14.59405
C         35.93958       17.74914       15.15389
O         35.90452       18.03962       16.34187
C         33.96413       16.01381       15.51096
C         33.20075       16.99181       16.42517
C         31.81253       16.50641       16.71636
O         30.99559       16.43259       15.81136
O         31.44530       16.19882       17.97180
H         35.21973       15.74024       12.75055
H         34.32898       17.34338       13.94148
H         34.39485       15.19002       16.11606
H         33.24527       15.54308       14.79968
H         33.08498       17.98577       15.94228
H         33.78084       17.12244       17.36454
N         36.78292       18.40607       14.31078
C         37.73804       19.39052       14.77221
H         38.73042       19.17590       14.32268
H         37.40493       20.39832       14.45256
H         37.85783       19.37502       15.87638
H         36.73553       18.21246       13.29863
Ca        28.55333       15.03582       17.53869
O         30.47330       13.53881       15.60193
H         29.68461       12.97354       15.41416
H         31.18044       12.89459       15.85385
O         28.80471       18.64683       16.80494
H         28.20063       19.30261       17.23488
H         29.43899       19.19595       16.27934
O         27.40739       14.07529       14.90003
H         26.75878       13.94070       15.63118
H         27.25695       13.31055       14.29153
O         28.94810       17.42625       19.40402
H         28.52396       17.01217       20.19486
H         29.61656       18.05501       19.77437
O         28.21667       16.79424       14.44151
H         28.43702       16.34385       13.58808
H         28.63226       17.68815       14.36047

Ca 1.70



