%chk=loop3.cluster20.chk
%nprocshared=48
%mem=10GB
%nosave
#b3lyp/svp scf=(tight,noincore) Test 
#IOP(5/87=12) Density=Current Pop=(MK,readradii) iop(6/33=2) iop(6/42=6)

loop3.cluster20 

   0  1 
C         33.48894       58.37760       28.13738
C         34.45912       57.80387       29.12925
O         35.24691       56.93836       28.77494
H         32.58444       58.75521       28.66137
H         33.96186       59.22890       27.60355
H         33.16567       57.60555       27.40961
N         34.43741       58.24383       30.41562
C         35.37073       57.80205       31.44295
C         34.71204       56.73898       32.32165
O         33.51336       56.81237       32.55350
C         35.78242       59.05847       32.23299
C         36.92096       58.83368       33.15426
O         36.79520       58.01568       34.18801
O         37.96336       59.43053       32.99260
H         33.75079       58.97117       30.67048
H         36.28322       57.36719       30.97165
H         34.91652       59.45018       32.80755
H         36.10445       59.84209       31.51745
N         35.43471       55.67064       32.77539
C         34.83275       54.53440       33.48676
C         34.65866       54.79963       34.99489
O         33.83329       54.15912       35.62956
C         35.73028       53.29595       33.23898
C         35.09616       51.95408       33.62723
C         36.05827       50.79142       33.32184
C         35.37532       49.41154       33.32716
N         34.56114       49.17593       34.52040
H         36.43458       55.62054       32.52528
H         33.84675       54.31896       33.01584
H         36.70925       53.43614       33.74866
H         35.91982       53.23737       32.14190
H         34.16575       51.83419       33.03430
H         34.84618       51.93155       34.70967
H         36.88600       50.81670       34.06568
H         36.51031       50.90821       32.31145
H         36.17143       48.63774       33.24767
H         34.72524       49.31486       32.42819
H         34.36616       48.15202       34.60328
H         35.04907       49.50520       35.38326
H         33.64500       49.67196       34.41773
N         35.48722       55.67918       35.62893
C         35.53287       55.95226       37.07082
C         35.27177       57.42429       37.44281
O         35.29164       57.72217       38.63038
C         36.93671       55.54321       37.60391
C         38.03554       56.27220       36.88477
O         38.23181       57.45126       37.11307
O         38.47782       55.75523       35.73542
H         36.19050       56.11991       35.05635
H         34.76708       55.34423       37.60072
H         37.07432       54.45561       37.42951
H         37.03652       55.73177       38.69315
N         34.99962       58.39321       36.51436
C         34.65394       59.75773       36.90371
C         35.81581       60.71210       37.15146
O         35.54263       61.81925       37.59609
H         34.87793       58.13022       35.53003
H         34.01586       59.72161       37.81471
H         34.02639       60.21696       36.11071
N         37.11953       60.40382       36.85602
C         38.20230       61.36587       37.09695
C         38.41063       62.30571       35.91089
O         39.13866       63.27936       36.04787
C         39.49996       60.66282       37.58593
C         40.48378       60.24741       36.51539
N         41.78194       60.64060       36.59633
O         40.12268       59.53461       35.59468
H         37.33553       59.51541       36.39456
H         37.88601       61.98553       37.96713
H         39.21780       59.77235       38.18578
H         40.03991       61.35136       38.26984
H         42.11111       61.21935       37.38344
H         42.46972       60.34892       35.88788
N         37.78419       62.07789       34.71430
C         37.90798       62.96707       33.56900
C         39.05993       62.62675       32.63776
O         39.25503       63.34915       31.67146
H         37.16238       61.26560       34.61370
H         37.97210       64.02076       33.91313
H         36.97616       62.88625       32.96682
N         39.85105       61.53513       32.84688
C         40.96075       61.15639       31.97680
C         40.71861       59.77834       31.38941
O         40.48582       58.84166       32.14034
C         42.25377       61.16238       32.78606
C         42.64169       62.56726       33.17200
C         43.52662       63.27750       32.35000
C         42.13423       63.18033       34.33136
C         43.91536       64.57353       32.68393
C         42.53272       64.47906       34.67112
C         43.42699       65.17697       33.85046
O         43.81298       66.42383       34.18766
H         39.67141       60.94157       33.66276
H         41.08355       61.86993       31.13302
H         43.05636       60.74078       32.14402
H         42.18196       60.50020       33.67226
H         43.90979       62.82365       31.44505
H         41.44401       62.65413       34.97318
H         44.59960       65.10554       32.03665
H         42.15111       64.94258       35.57303
H         44.43829       66.92424       33.64329
N         40.75455       59.58732       30.03416
C         40.33523       58.34339       29.40783
C         41.50717       57.67580       28.69948
O         42.00928       58.20815       27.71841
C         39.14183       58.61837       28.43204
C         37.94519       59.31592       29.14055
C         38.63068       57.29850       27.83140
C         38.04475       60.83963       29.28674
H         41.03030       60.36863       29.42018
H         39.96669       57.63788       30.18421
H         39.48017       59.25004       27.57984
H         37.80525       58.84051       30.13021
H         37.01703       59.16399       28.54926
H         37.85566       57.51067       27.06379
H         39.44064       56.74046       27.32591
H         38.18158       56.66237       28.61907
H         38.93506       61.19045       29.82797
H         38.02826       61.31560       28.28352
H         37.16259       61.20565       29.85252
N         41.98847       56.48263       29.15924
C         43.04421       55.72490       28.48716
C         42.47346       54.93940       27.31767
O         41.28405       55.03207       27.07449
C         43.71705       54.78379       29.50588
O         42.78885       53.86987       30.02380
H         41.58090       56.09387       30.02334
H         43.83190       56.41763       28.11933
H         44.12366       55.39341       30.34170
H         44.56445       54.24989       29.01969
H         43.29440       53.05492       30.27646
N         43.25694       54.14527       26.53597
C         42.72035       53.31655       25.45624
C         41.84232       52.19919       26.01989
O         40.76329       51.96066       25.50554
C         43.86415       52.73868       24.61802
H         44.27372       54.12517       26.71830
H         42.12696       53.94863       24.75570
H         44.51339       53.57403       24.27360
H         44.47991       52.02424       25.20191
H         43.46473       52.23010       23.71356
N         42.24609       51.52685       27.13997
C         41.42569       50.51924       27.82038
C         40.06010       51.08056       28.19261
O         39.04984       50.49868       27.81370
C         42.16445       50.04022       29.08138
H         43.15457       51.77577       27.55369
H         41.28873       49.63817       27.15595
H         42.33563       50.88312       29.78365
H         41.58495       49.25256       29.60666
H         43.15451       49.61911       28.80125
N         39.95450       52.24118       28.89475
C         38.68040       52.88764       29.21599
C         37.85494       53.15664       27.97106
O         36.66580       52.87801       27.97492
C         38.93758       54.20094       29.98715
C         39.34216       53.85917       31.42037
C         39.75301       55.03424       32.23048
O         39.03045       56.15553       32.26421
O         40.71724       54.93637       32.96585
H         40.82910       52.71123       29.17211
H         38.06511       52.22986       29.87091
H         38.00422       54.80372       30.05513
H         39.70611       54.80991       29.46502
H         40.17905       53.13149       31.44925
H         38.46184       53.39241       31.91264
N         38.43020       53.67452       26.85844
C         37.68705       53.93108       25.64794
H         36.87236       54.65611       25.85063
H         38.36740       54.36202       24.88165
H         37.26794       52.98106       25.25536
H         39.42804       53.85732       26.85852
Ca        39.27795       57.16042       34.21156
O         41.20138       57.03268       36.62871
H         40.85775       56.49009       37.38158
H         41.83919       57.66211       37.04824
O         42.82191       57.07861       33.76039
H         42.59769       56.12214       33.87140
H         43.07052       57.16411       32.80600

Ca 1.70



