%chk=loop2.cluster145.chk
%nprocshared=48
%mem=10GB
%nosave
#b3lyp/svp scf=(tight,noincore) Test 
#IOP(5/87=12) Density=Current Pop=(MK,readradii) iop(6/33=2) iop(6/42=6)

loop2.cluster145 

   -2  1 
C         61.30771       46.92287        8.91030
C         62.29967       46.50676        7.86597
O         62.65902       45.33859        7.81623
H         60.35005       46.38195        8.76749
H         61.72382       46.68650        9.91170
H         61.11004       48.01512        8.86553
N         62.81289       47.43195        7.00688
C         63.89280       47.13247        6.06835
C         63.44316       46.47003        4.76431
O         64.13234       46.60789        3.76176
C         64.77682       48.38734        5.86324
C         64.07543       49.58802        5.27439
O         64.75394       50.74191        5.13212
O         62.90068       49.53731        4.94361
H         62.52441       48.41284        7.13319
H         64.57918       46.40018        6.54972
H         65.64937       48.13387        5.22365
H         65.16862       48.68403        6.86118
N         62.35506       45.64766        4.72883
C         62.02868       44.81446        3.57610
C         60.70663       44.11172        3.81030
O         60.58915       43.42876        4.82033
C         63.07932       43.70745        3.40388
H         61.75447       45.57727        5.55758
H         62.00994       45.43109        2.65833
H         63.14229       43.09189        4.32960
H         62.78447       43.03890        2.56469
H         64.08257       44.11937        3.18680
N         59.66497       44.15541        2.93112
C         59.64919       44.88517        1.66077
C         59.77548       46.39476        1.83765
O         59.75133       46.87304        2.96042
C         58.41163       44.46824        0.81972
C         57.05144       44.69397        1.45446
O         56.18102       45.26433        0.82480
O         56.77031       44.19285        2.67986
H         58.86464       43.56003        3.16592
H         60.54210       44.55485        1.08528
H         58.49880       43.37583        0.64392
H         58.45195       44.96663       -0.17427
N         60.04318       47.18730        0.75634
C         60.40434       48.59488        0.87313
C         59.61534       49.48600       -0.06312
O         60.19701       49.94945       -1.03417
H         60.12112       46.74840       -0.17437
H         61.47078       48.66181        0.55967
H         60.36507       48.98119        1.91005
N         58.30517       49.81715        0.12717
C         57.47546       49.38034        1.24546
C         57.95391       49.95202        2.58017
O         58.12931       51.15875        2.68078
C         56.00751       49.84695        1.03178
C         55.41366       49.40425       -0.28873
N         55.34603       48.09525       -0.61037
O         54.98554       50.24021       -1.07040
H         57.86848       50.42003       -0.58887
H         57.47133       48.27460        1.27263
H         55.95048       50.95728        1.08457
H         55.38013       49.43600        1.84888
H         55.70418       47.39175        0.03876
H         54.94199       47.79110       -1.50869
N         58.07869       49.14269        3.67717
C         58.36502       49.64379        5.01832
C         57.11273       49.65824        5.87754
O         57.10797       50.32283        6.90478
H         57.85826       48.14833        3.58270
H         58.70731       50.69685        4.96115
H         59.17691       49.05318        5.49425
N         55.97906       49.02629        5.46021
C         54.66863       49.23994        6.04149
C         54.09602       47.95465        6.57755
O         54.64740       46.88390        6.35189
C         53.76285       49.88067        4.95417
C         54.31276       51.25322        4.55266
O         53.72324       49.07915        3.80495
H         56.01818       48.42859        4.64072
H         54.73608       49.92755        6.91135
H         52.72288       50.04090        5.31591
H         53.05980       48.36129        3.96685
H         53.78830       51.62669        3.64940
H         54.16312       51.97003        5.38561
H         55.39669       51.20878        4.30999
N         52.98990       48.01306        7.36063
C         52.48713       46.87061        8.10357
C         51.28438       46.25856        7.41784
O         50.26171       46.90804        7.24792
C         52.21952       47.19718        9.61599
C         53.38952       46.73852       10.52346
C         51.81650       48.65898        9.89787
C         54.72946       47.43773       10.28411
H         52.52448       48.92496        7.47220
H         53.24883       46.06337        8.09731
H         51.36739       46.55613        9.93710
H         53.53365       45.64973       10.35475
H         53.10764       46.86618       11.59092
H         50.97840       48.97278        9.24115
H         51.49593       48.77682       10.95366
H         52.67373       49.34673        9.72855
H         55.50377       46.94861       10.91330
H         55.04889       47.35253        9.22607
H         54.67792       48.50684       10.57213
N         51.35172       44.94384        7.06101
C         50.25297       44.16183        6.51465
C         49.74753       43.23908        7.60938
O         50.35193       43.20763        8.65806
C         50.75748       43.42917        5.24334
C         52.01183       42.62062        5.50451
O         53.22496       43.00761        5.04378
O         51.94628       41.62259        6.19910
H         52.21787       44.43267        7.28041
H         49.39715       44.82088        6.25500
H         50.99199       44.20163        4.49009
H         49.97085       42.77016        4.81633
N         48.60852       42.51028        7.47603
C         47.96589       41.78210        8.57717
C         48.91276       40.89640        9.42850
O         49.01114       41.11849       10.62355
C         47.20140       42.78926        9.48221
C         46.17891       42.08401       10.34979
C         46.37689       41.92774       11.73351
C         45.00581       41.57636        9.76291
C         45.42323       41.25707       12.50865
C         44.04724       40.92721       10.54521
C         44.25809       40.76197       11.91574
H         48.09610       42.56949        6.58172
H         47.19970       41.12511        8.11622
H         46.64766       43.53081        8.86597
H         47.93329       43.36534       10.09135
H         47.27413       42.30505       12.20699
H         44.83058       41.69839        8.70102
H         45.58667       41.12120       13.56992
H         43.14120       40.55104       10.08742
H         43.51778       40.25113       12.51811
N         49.62289       39.86148        8.89026
C         50.44620       38.97442        9.71049
C         51.67898       39.67199       10.24599
O         52.19120       39.26820       11.28449
C         50.76914       37.83831        8.73219
C         50.79357       38.54282        7.38616
C         49.61125       39.50649        7.49707
H         49.88015       38.54637       10.56708
H         51.66576       37.23226        8.98617
H         49.88669       37.16023        8.70359
H         51.73448       39.13445        7.35121
H         50.76645       37.88808        6.49156
H         49.79456       40.36460        6.82030
H         48.63482       39.02924        7.26800
N         52.22992       40.71404        9.57891
C         53.40187       41.42940       10.04656
C         53.07628       42.32332       11.24556
O         53.90028       42.43522       12.13975
C         54.03468       42.13571        8.83336
C         55.27452       42.95418        9.16944
C         56.01871       43.25709        7.90837
O         57.18977       42.63775        7.66379
O         55.53924       44.00666        7.07374
H         51.80898       41.00108        8.68283
H         54.17734       40.69851       10.37046
H         53.30955       42.76626        8.28555
H         54.34087       41.30769        8.14619
H         55.93463       42.35133        9.82443
H         55.00045       43.89260        9.69721
N         51.87479       42.95839       11.34004
C         51.47274       43.78919       12.45445
H         50.49233       43.42701       12.83481
H         52.20450       43.77198       13.28503
H         51.33668       44.83367       12.10120
H         51.19441       42.83149       10.60550
Ca        54.85443       44.18850        3.95593
O         54.26536       42.57538        1.91731
H         54.87158       41.81321        2.09335
H         53.38684       42.28805        2.27150
O         55.67084       46.64167        3.24723
H         56.40199       46.89773        2.64280
H         54.94012       47.24006        2.97836
O         57.57614       45.19509        5.35286
H         57.64881       45.24614        6.33635
H         58.41199       44.74550        5.09226
O         55.97336       41.80440        4.57195
H         55.49258       41.01113        4.91352
H         56.63556       42.02783        5.27030
O         52.73774       45.78657        3.19077
H         52.57507       46.23151        2.32278
H         52.00434       46.09467        3.77775

Ca 1.70



