%chk=loop3.cluster71.chk
%nprocshared=48
%mem=10GB
%nosave
#b3lyp/svp scf=(tight,noincore) Test 
#IOP(5/87=12) Density=Current Pop=(MK,readradii) iop(6/33=2) iop(6/42=6)

loop3.cluster71 

   0  1 
C         51.89963       62.43722       53.44476
C         51.85931       63.31523       54.65772
O         51.88631       64.53101       54.52505
H         52.88799       61.92909       53.43012
H         51.10315       61.66538       53.48974
H         51.79300       63.02914       52.51220
N         51.80175       62.74518       55.89311
C         51.94510       63.49206       57.14168
C         51.02624       64.70377       57.17900
O         51.51521       65.81853       57.28151
C         51.69983       62.59896       58.39177
C         52.56741       61.36211       58.47373
O         53.47620       61.24308       59.45877
O         52.40685       60.43449       57.69633
H         51.68580       61.72556       55.92846
H         52.99299       63.86450       57.19244
H         50.63820       62.27504       58.44874
H         51.90883       63.22242       59.28883
N         49.67950       64.54703       57.06761
C         48.75046       65.67683       57.02291
C         48.91132       66.63895       58.20191
O         48.89702       67.84639       57.98343
C         47.28754       65.21004       56.83095
C         46.60608       64.56758       58.05958
C         47.06981       63.13184       58.39197
C         46.39060       62.56981       59.64807
N         47.06428       63.03929       60.85493
H         49.31685       63.59630       56.94068
H         49.00399       66.25009       56.10219
H         47.21973       64.52998       55.95105
H         46.70245       66.12108       56.57645
H         45.52053       64.49789       57.82395
H         46.70500       65.25426       58.92208
H         48.15474       63.05212       58.57471
H         46.79764       62.49564       57.52362
H         46.46493       61.46171       59.64520
H         45.31040       62.84031       59.65940
H         48.01687       62.61314       60.92812
H         47.16643       64.06824       60.83080
H         46.51379       62.74618       61.68614
N         49.19329       66.17626       59.45413
C         49.59105       67.04662       60.57030
C         50.14338       66.24173       61.73892
O         49.92754       65.03327       61.80530
C         48.47744       68.02594       61.03694
C         47.22512       67.37901       61.54306
O         47.15546       66.17496       61.67686
O         46.17234       68.14556       61.87707
H         49.24358       65.15199       59.57289
H         50.44480       67.66006       60.20252
H         48.19404       68.69250       60.20036
H         48.86135       68.66681       61.86019
N         50.95313       66.83378       62.66301
C         51.64476       66.05628       63.67574
C         50.80610       65.82405       64.89982
O         49.79387       66.48064       65.08275
H         51.20380       67.82887       62.54484
H         52.58675       66.55312       63.98404
H         51.93465       65.07316       63.23793
N         51.17658       64.85707       65.77802
C         50.37616       64.43923       66.92285
C         51.15509       64.52891       68.22481
O         50.63272       64.12080       69.25242
C         49.96431       62.97546       66.66500
C         49.11914       62.88273       65.43775
N         47.93392       63.50972       65.40541
O         49.50659       62.25714       64.46186
H         52.03763       64.32356       65.57662
H         49.46256       65.06422       67.04244
H         49.38169       62.55995       67.51268
H         50.87594       62.37244       66.50817
H         47.59152       64.02515       66.22862
H         47.38158       63.48661       64.55049
N         52.41513       65.05392       68.25730
C         53.24353       65.07010       69.44907
C         53.59477       63.66429       69.89972
O         54.08217       62.87507       69.10255
H         52.81727       65.46555       67.40599
H         52.73354       65.64314       70.25545
H         54.18816       65.59675       69.20369
N         53.35123       63.29397       71.19043
C         53.56503       61.96417       71.77451
C         52.55246       60.91087       71.30343
O         52.50501       59.84443       71.89377
C         55.05017       61.50704       71.68699
C         55.44660       60.53938       72.79273
C         55.98043       59.26931       72.50483
C         55.31995       60.93432       74.13955
C         56.36660       58.41272       73.54832
C         55.69581       60.07585       75.17367
C         56.21965       58.81134       74.88278
O         56.58643       57.97692       75.87789
H         52.99038       64.01959       71.82817
H         53.32714       62.11529       72.84712
H         55.70309       62.39399       71.83239
H         55.26495       61.09792       70.67440
H         56.10756       58.94533       71.48002
H         54.93307       61.91253       74.39150
H         56.78273       57.43862       73.32207
H         55.58447       60.39798       76.20190
H         56.48386       58.22076       76.80997
N         51.68877       61.17334       70.27375
C         50.57373       60.35098       69.81192
C         49.41836       60.36929       70.80346
O         48.41551       61.01471       70.52871
C         50.96189       58.92320       69.31747
C         52.19867       58.90305       68.38813
C         49.75636       58.26376       68.62470
C         52.10875       59.79088       67.15226
H         51.79724       62.04822       69.76452
H         50.18296       60.88569       68.91771
H         51.23378       58.28214       70.18238
H         52.38036       57.85622       68.05883
H         53.08445       59.22623       68.97278
H         48.97205       58.07685       69.37411
H         49.34433       58.90948       67.81718
H         50.02174       57.27733       68.19479
H         53.05298       59.70817       66.57517
H         51.26316       59.49901       66.49493
H         52.01057       60.84197       67.46993
N         49.47483       59.66623       71.96664
C         48.35487       59.59337       72.89825
C         47.17983       58.88471       72.24237
O         46.07242       59.40280       72.26859
C         48.78331       58.86449       74.18189
O         49.18681       57.55138       73.90709
H         50.31970       59.12534       72.18075
H         48.06054       60.62111       73.21279
H         47.92950       58.85733       74.89507
H         49.63268       59.42844       74.63164
H         49.46189       57.16193       74.77658
N         47.38994       57.71379       71.56774
C         46.37076       56.97357       70.83105
C         45.48917       57.87309       69.97591
O         44.27355       57.73600       70.02076
C         45.56018       56.09054       71.78940
H         48.35435       57.35556       71.50953
H         46.90546       56.28242       70.14235
H         44.81793       55.48603       71.22366
H         46.23966       55.38774       72.31696
H         45.02693       56.70880       72.54188
N         46.03954       58.82365       69.16655
C         45.23013       59.75250       68.39636
C         45.35182       59.50513       66.90956
O         46.44628       59.30295       66.40062
C         45.62529       61.19893       68.70469
H         47.05782       58.93308       69.13333
H         44.16129       59.66732       68.68708
H         46.63310       61.43622       68.30109
H         44.88726       61.88831       68.23659
H         45.61784       61.37984       69.79948
N         44.23148       59.59965       66.14292
C         44.20833       59.58984       64.68496
C         44.67020       58.28558       64.05719
O         44.95764       58.27053       62.86769
C         44.87126       60.85508       64.07372
C         44.53715       62.10318       64.91939
C         44.48170       63.38374       64.14281
O         45.42618       63.77007       63.48546
O         43.35940       64.12084       64.17728
H         43.33561       59.79121       66.61613
H         43.13858       59.69963       64.39854
H         44.45567       60.95628       63.04453
H         45.97745       60.77181       63.98098
H         45.27404       62.16384       65.75168
H         43.52692       61.99869       65.36526
N         44.72420       57.13545       64.79099
C         45.13196       55.86289       64.23017
H         46.05937       55.52798       64.73776
H         44.33443       55.10967       64.40435
H         45.32476       55.91519       63.13800
H         44.45978       57.15015       65.78603
Ca        44.39317       66.70774       63.49573
O         43.17226       68.89372       62.27839
H         43.38547       69.75654       62.71270
H         42.23415       68.71096       62.53452
O         41.80107       66.16727       62.90666
H         41.51199       65.38431       62.37686
H         41.01642       66.42448       63.44999
O         42.29656       68.31661       65.26686
H         41.33303       68.53918       65.30002
H         42.75137       69.12195       65.61886
O         44.13070       66.30355       66.27946
H         44.28008       66.97829       66.98726
H         43.79869       65.49891       66.74817
O         45.61594       68.84049       64.99403
H         45.17388       69.65290       65.34313
H         46.31892       68.63181       65.65880
O         46.67621       66.20230       64.74771
H         46.41122       65.77427       65.59622
H         47.61835       65.95930       64.62466
O         44.06923       65.23521       61.08796
H         45.01192       65.43056       60.87284
H         43.59515       65.38000       60.23356

Ca 1.70



