%chk=loop4.cluster4.chk
%nprocshared=48
%mem=10GB
%nosave
#b3lyp/svp scf=(tight,noincore) Test 
#IOP(5/87=12) Density=Current Pop=(MK,readradii) iop(6/33=2) iop(6/42=6)

loop4.cluster4 

   -3  1 
C         95.93103       80.82486       46.07470
C         97.01005       80.03877       46.76757
O         97.02489       78.82965       46.63667
H         94.99607       80.78994       46.67123
H         96.23908       81.88193       45.93563
H         95.72936       80.39857       45.06674
N         97.98758       80.68175       47.47724
C         99.12360       80.04474       48.16234
C        100.05865       79.25603       47.25040
O        101.01558       78.68697       47.75998
C         98.75132       79.21120       49.42549
C         98.00645       77.94349       49.14979
O         97.00868       77.66938       49.79531
O         98.43882       77.11959       48.17328
H         97.93631       81.70982       47.52691
H         99.74399       80.87075       48.57290
H         98.19546       79.83773       50.15683
H         99.70375       78.91534       49.91650
N         99.88665       79.20152       45.89857
C        100.80842       78.44731       45.05853
C        100.67980       76.95011       45.23581
O         99.70877       76.45693       45.78418
C        100.71800       78.82193       43.55446
C        101.26071       80.25638       43.37047
C         99.29038       78.63090       42.99217
C        101.45391       80.65632       41.91607
H         99.15121       79.76153       45.45993
H        101.83993       78.70006       45.39412
H        101.39695       78.14272       42.99264
H        102.26558       80.32799       43.84546
H        100.58619       80.97965       43.87286
H         99.27147       78.75822       41.89226
H         98.91699       77.60891       43.21376
H         98.57422       79.36038       43.42222
H        102.20669       79.99865       41.42786
H        100.49465       80.60211       41.37561
H        101.82081       81.70303       41.87327
N        101.69655       76.17624       44.78299
C        101.76768       74.72921       44.90868
C        101.71244       74.27157       46.37196
O        102.34560       74.89706       47.20936
C        103.05188       74.17797       44.22852
C        104.35148       74.85890       44.60762
O        104.62522       75.96328       44.16144
O        105.26705       74.20526       45.34299
H        102.47409       76.66827       44.33677
H        100.92588       74.29495       44.34117
H        102.94779       74.25862       43.12512
H        103.12712       73.09583       44.46775
N        101.05024       73.13141       46.75601
C        100.33046       72.27757       45.82495
C         99.05744       72.95030       45.34665
O         98.62833       73.90181       45.97663
H        101.10809       72.82807       47.74055
H        100.05752       71.32348       46.31869
H        101.02334       72.03448       44.99555
N         98.41102       72.57878       44.20739
C         98.84157       71.48978       43.34433
C         98.20773       71.70808       41.98745
O         97.01038       71.48977       41.87409
C         98.38951       70.14784       43.98701
C         98.74116       68.88844       43.24530
O         99.32977       68.92537       42.17740
O         98.40221       67.69802       43.77867
H         97.60083       73.14919       43.91326
H         99.93721       71.52194       43.21721
H         97.28384       70.16681       44.11881
H         98.83381       70.05711       44.99360
N         98.89014       72.20861       40.91095
C        100.28374       72.64264       40.90769
C        100.72703       73.10112       39.51670
O        101.82935       72.76103       39.10844
H         98.35325       72.34645       40.05494
H        100.94522       71.80088       41.20891
H        100.40696       73.47530       41.63193
N         99.87888       73.79186       38.69365
C        100.18164       74.11189       37.30295
C         99.94515       75.59530       37.01290
O         99.94604       75.97315       35.85211
C         99.34763       73.17410       36.38663
C         99.85596       71.71869       36.49759
C         99.11955       70.78733       35.56797
N         98.21541       69.90639       36.05186
O         99.34570       70.82471       34.36801
H         98.93493       74.03792       39.02749
H        101.24372       73.91853       37.04027
H         99.44993       73.48492       35.32512
H         98.26987       73.21938       36.66321
H         99.74304       71.37134       37.54540
H        100.94017       71.66422       36.24672
H         98.00383       69.87854       37.05321
H         97.70677       69.27093       35.42094
N         99.79943       76.50166       38.03222
C         99.63475       77.93691       37.81114
C         98.26776       78.37524       38.28404
O         97.83435       78.02510       39.36944
C        100.78301       78.75435       38.46289
C        100.41919       80.24637       38.58880
C        102.04854       78.62923       37.59611
H         99.82653       76.18051       39.00838
H         99.66499       78.17491       36.72688
H        100.98727       78.38861       39.49351
H        101.26911       80.81696       39.01656
H        100.14240       80.68253       37.60751
H         99.56139       80.37173       39.28482
H        102.85641       79.28621       37.98105
H        102.41482       77.58322       37.57486
H        101.83024       78.94902       36.55078
N         97.54775       79.18934       37.46197
C         96.15129       79.52502       37.67491
C         95.35478       78.25203       37.52595
O         94.41654       78.05731       38.26856
C         95.73058       80.54580       36.60370
C         94.27719       80.92736       36.68753
N         93.45054       80.67711       35.64560
O         93.84545       81.47178       37.69243
H         97.99083       79.52115       36.59419
H         96.00753       79.98797       38.67891
H         95.94497       80.11598       35.60188
H         96.34603       81.46454       36.72204
H         93.80495       80.21449       34.79532
H         92.45709       80.94452       35.69021
N         95.74314       77.30250       36.62730
C         95.17780       75.95696       36.51573
C         95.21738       75.19749       37.84152
O         96.18521       75.29717       38.58031
C         95.98110       75.15704       35.45751
C         95.27282       75.01909       34.13744
C         95.65932       75.77092       33.01717
C         94.25155       74.06335       34.01083
C         95.03953       75.55304       31.78012
C         93.64491       73.83813       32.77433
C         94.04072       74.57360       31.65355
O         93.46638       74.32400       30.45928
H         96.54290       77.53677       36.01983
H         94.10933       76.02020       36.20722
H         96.17631       74.11714       35.79461
H         97.00755       75.56552       35.33170
H         96.44085       76.51586       33.09941
H         93.95317       73.46909       34.86639
H         95.34593       76.13134       30.91765
H         92.87994       73.07710       32.68374
H         93.74338       74.78430       29.65450
N         94.15731       74.39777       38.17348
C         93.99235       73.65821       39.43337
C         93.71217       74.55492       40.63538
O         93.41871       74.03777       41.70888
C         95.12647       72.65621       39.72182
C         95.40017       71.72871       38.52908
C         96.15891       70.49540       38.93836
O         95.53333       69.30660       38.97007
O         97.33497       70.55059       39.23431
H         93.39643       74.29811       37.48459
H         93.06342       73.05454       39.30742
H         94.76366       72.03309       40.57160
H         96.05666       73.16936       40.04133
H         95.92866       72.27546       37.71467
H         94.42626       71.37938       38.13394
N         93.70433       75.90498       40.51125
C         93.31983       76.84004       41.54952
C         91.98024       77.47615       41.16633
O         91.14263       77.64994       42.03609
C         94.41931       77.91020       41.73761
C         95.80882       77.33810       42.08627
C         95.86140       76.61741       43.40451
O         96.67363       75.72074       43.56796
O         95.18375       77.09641       44.46525
H         93.93603       76.30011       39.60732
H         93.17957       76.32379       42.52512
H         94.11198       78.62133       42.53609
H         94.52881       78.49473       40.80017
H         96.52161       78.18685       42.14726
H         96.17235       76.66691       41.27725
N         91.68180       77.76254       39.85760
C         90.40039       78.26413       39.41231
H         89.69020       78.42872       40.24469
H         90.55202       79.21657       38.86128
H         89.95982       77.52501       38.70716
H         92.35951       77.57889       39.12109
Ca        97.04438       76.06420       46.72349
O         96.72922       74.33319       48.74914
H         97.33598       73.55493       48.68437
H         97.12016       74.90389       49.45679
O         94.75197       77.05132       48.08897
H         95.44612       77.74902       48.09797
H         93.92116       77.57212       48.19189
O         94.81579       74.26588       46.37444
H         93.89388       74.59424       46.52254
H         94.85375       74.04417       45.41047

Ca 1.70



