%chk=loop3.cluster190.chk
%nprocshared=48
%mem=10GB
%nosave
#b3lyp/svp scf=(tight,noincore) Test 
#IOP(5/87=12) Density=Current Pop=(MK,readradii) iop(6/33=2) iop(6/42=6)

loop3.cluster190 

   0  1 
C        109.97141       71.95089       37.82160
C        110.67501       70.62804       37.88274
O        110.81892       70.07662       38.96550
H        108.95865       71.84852       38.26755
H        110.54622       72.71426       38.38222
H        109.84835       72.28914       36.77089
N        111.10851       70.03251       36.73747
C        111.66832       68.68894       36.72715
C        113.01230       68.63543       37.43721
O        113.73079       69.62230       37.46238
C        111.80116       68.18758       35.27775
C        111.87589       66.69084       35.17807
O        110.86870       66.03562       35.37955
O        112.96189       66.06429       34.70624
H        110.96104       70.51885       35.83993
H        110.93330       68.03407       37.24653
H        112.64155       68.69814       34.76251
H        110.87304       68.45054       34.72362
N        113.39266       67.48316       38.04662
C        114.66766       67.33607       38.75266
C        115.85782       67.12733       37.81621
O        116.99008       67.19067       38.28622
C        114.54513       66.32244       39.91487
C        113.88840       64.95985       39.60907
C        113.86735       64.12373       40.88930
C        113.07960       62.82159       40.72420
N        113.24522       61.98572       41.91228
H        112.73385       66.70257       38.01965
H        114.89381       68.29888       39.26362
H        113.90131       66.80125       40.68592
H        115.55129       66.17217       40.36462
H        114.43503       64.42053       38.80625
H        112.83077       65.08885       39.30142
H        113.38812       64.70275       41.71231
H        114.91738       63.90200       41.17101
H        113.43863       62.26209       39.83351
H        112.00042       63.06071       40.57681
H        114.24448       61.68271       41.98176
H        112.98239       62.51592       42.77516
H        112.63961       61.13848       41.83070
N        115.69400       66.94246       36.47596
C        116.78326       67.00185       35.50394
C        116.46373       68.02215       34.39938
O        117.05853       67.96560       33.33540
C        117.12271       65.59050       34.97736
C        115.95759       64.84298       34.40599
O        115.39651       65.24552       33.40260
O        115.54617       63.70266       34.99105
H        114.74260       66.81400       36.11082
H        117.72959       67.35177       35.97344
H        117.51697       65.00356       35.83575
H        117.93453       65.64753       34.21872
N        115.56953       69.03465       34.63352
C        115.25418       70.08983       33.67394
C        114.46451       69.64930       32.45109
O        114.12544       70.50264       31.64157
H        115.14024       69.11172       35.55858
H        116.19281       70.59340       33.35987
H        114.62657       70.84419       34.19844
N        114.13775       68.34591       32.24090
C        113.42390       67.85219       31.06851
C        112.21174       67.08322       31.55324
O        112.39110       66.13535       32.28654
C        114.40793       66.93006       30.30978
C        113.83944       66.07991       29.20253
N        114.61024       65.11636       28.64803
O        112.68726       66.22588       28.82567
H        114.43444       67.64335       32.93033
H        113.09869       68.67399       30.39281
H        114.84007       66.22200       31.04670
H        115.24281       67.54179       29.90140
H        115.58194       64.98020       28.96617
H        114.22703       64.48817       27.92733
N        110.94474       67.41260       31.17833
C        109.75643       66.74576       31.71350
C        109.61183       65.25118       31.44203
O        108.60885       64.69028       31.86007
H        110.80665       68.20771       30.53692
H        108.85873       67.24816       31.29455
H        109.73525       66.88196       32.81692
N        110.55459       64.53247       30.76840
C        110.44214       63.09425       30.55294
C        110.41149       62.35068       31.93025
O        111.69485       62.29063       32.49831
C        111.59426       62.65493       29.60694
C        111.68475       61.21089       29.16764
C        112.46196       60.29611       29.89855
C        111.10971       60.80191       27.95130
C        112.66479       58.99735       29.41969
C        111.31615       59.50281       27.47291
C        112.10475       58.60034       28.20133
O        112.34718       57.36016       27.72850
H        111.37000       65.01282       30.38576
H        109.48461       62.91755       30.01320
H        112.57240       62.94673       30.03099
H        111.51908       63.27078       28.68368
H        112.93630       60.59785       30.82166
H        110.52560       61.49658       27.36106
H        113.28178       58.30732       29.98198
H        110.88313       59.20507       26.52581
H        112.02192       57.07169       26.86335
N        109.90771       60.97892       31.75274
C        109.46047       60.23349       32.95771
C        110.60436       59.37841       33.45315
O        111.71013       59.50417       32.94665
C        108.75787       61.13969       34.06555
C        109.69952       61.79157       35.13486
C        107.62387       60.39354       34.80786
C        109.27101       63.22345       35.48267
H        109.19679       60.90864       30.98809
H        108.68282       59.53086       32.58393
H        108.23663       61.93762       33.49465
H        110.74941       61.84248       34.79484
H        109.70804       61.18054       36.07038
H        106.90225       59.96945       34.07966
H        107.99429       59.57586       35.45074
H        107.07195       61.07720       35.48518
H        109.92341       63.64744       36.27486
H        109.37739       63.86110       34.57886
H        108.22190       63.27189       35.83908
N        110.42099       58.47813       34.44404
C        111.51947       57.85216       35.16461
C        111.54013       56.32814       35.05688
O        112.51237       55.72162       35.47582
C        111.37320       58.29992       36.62599
O        110.08256       57.97923       37.07593
H        109.46355       58.29791       34.76368
H        112.50187       58.21185       34.77697
H        111.50168       59.40757       36.65506
H        112.13063       57.82130       37.27781
H        109.88368       58.55804       37.85472
N        110.48174       55.65046       34.52588
C        110.41055       54.20015       34.35928
C        110.65441       53.35969       35.62360
O        111.48291       52.45824       35.56793
C        111.32710       53.77805       33.20474
H        109.65458       56.17824       34.22713
H        109.37435       53.96621       34.03213
H        112.39324       53.97695       33.44440
H        111.19851       52.69436       32.99580
H        111.05176       54.34165       32.28880
N        109.96492       53.51794       36.79345
C        109.05939       54.62018       37.09106
C        107.66748       54.13328       37.46014
O        107.50881       52.94350       37.68985
C        109.70574       55.36661       38.26382
H        110.15995       52.84978       37.55707
H        108.94680       55.27449       36.22573
H        109.12218       56.24232       38.59275
H        109.83116       54.68422       39.13334
H        110.72570       55.69441       37.96338
N        106.58076       54.96801       37.55232
C        106.55446       56.39929       37.23257
C        105.51276       56.69734       36.15533
O        105.82819       57.40405       35.20775
C        106.24637       57.21243       38.50467
C        106.34442       58.73047       38.25341
C        106.20733       59.50034       39.53390
O        105.05504       59.46096       40.22900
O        107.14075       60.17072       39.94675
H        105.69863       54.54177       37.87127
H        107.53751       56.76039       36.87058
H        107.00852       56.94617       39.26700
H        105.24419       56.94831       38.90704
H        105.56086       59.07102       37.54157
H        107.33774       58.95664       37.80870
N        104.23963       56.20669       36.25406
C        103.18780       56.52520       35.30692
H        102.32168       56.94066       35.86484
H        103.50022       57.27359       34.54933
H        102.85812       55.60219       34.78453
H        103.99486       55.57555       37.02792
Ca       112.46070       64.03083       33.80441
O        114.34225       62.88944       31.67960
H        114.84165       62.05341       31.85074
H        114.98501       63.48036       31.21636
O        112.84193       63.21964       36.52017
H        113.54963       62.66309       36.92976
H        112.03232       63.02156       37.05187
O        113.92334       61.39820       34.26692
H        113.37889       60.88137       33.63389
H        114.79745       60.94113       34.22961

Ca 1.70



