%chk=loop3.cluster43.chk
%nprocshared=48
%mem=10GB
%nosave
#b3lyp/svp scf=(tight,noincore) Test 
#IOP(5/87=12) Density=Current Pop=(MK,readradii) iop(6/33=2) iop(6/42=6)

loop3.cluster43 

   0  1 
C         59.92164       47.03672       36.88690
C         59.32858       46.36137       38.06465
O         59.78869       45.29196       38.44238
H         60.88946       46.56299       36.62415
H         59.20712       46.93360       36.04578
H         60.08105       48.10966       37.12035
N         58.30572       46.95325       38.73346
C         57.71563       46.31510       39.87944
C         56.87098       45.13175       39.42906
O         55.83069       45.32959       38.81621
C         56.88754       47.31769       40.68209
C         56.48657       46.66710       41.93737
O         55.46859       47.01027       42.48826
O         57.38920       45.90089       42.57250
H         58.00054       47.90066       38.46232
H         58.56402       45.98610       40.52951
H         56.01001       47.68278       40.10291
H         57.51201       48.18964       40.97183
N         57.31016       43.86479       39.64547
C         56.61213       42.68403       39.14706
C         55.33314       42.40432       39.92564
O         54.26171       42.43995       39.33755
C         57.55640       41.45515       39.17035
C         58.84554       41.64399       38.33365
C         58.55624       41.89113       36.84717
C         59.84317       42.06848       36.03746
N         59.52723       42.34023       34.63492
H         58.23372       43.75322       40.07766
H         56.32303       42.86242       38.09123
H         57.01157       40.56614       38.78730
H         57.85858       41.23865       40.21669
H         59.46311       40.72538       38.43688
H         59.44768       42.48916       38.72651
H         57.97006       42.82330       36.72510
H         57.97455       41.03500       36.44180
H         60.46359       41.14821       36.10920
H         60.42635       42.92215       36.45109
H         60.41514       42.46494       34.09838
H         58.98971       41.54133       34.22620
H         58.96134       43.21735       34.55799
N         55.37703       42.08638       41.25346
C         54.17244       41.79251       42.04025
C         53.23610       42.99499       42.15393
O         52.08542       42.81113       42.53127
C         54.54013       41.21483       43.43984
C         55.55403       42.04154       44.16354
O         56.67824       41.60288       44.35645
O         55.28596       43.30776       44.47394
H         56.29364       42.02453       41.70527
H         53.61214       40.99246       41.50886
H         54.99653       40.21493       43.28539
H         53.63828       41.09645       44.07542
N         53.65262       44.25240       41.83179
C         52.79571       45.42237       41.88899
C         52.34825       45.74047       43.29592
O         51.18458       46.06047       43.48605
H         54.62744       44.40174       41.53734
H         51.92639       45.31831       41.20142
H         53.37831       46.29024       41.52364
N         53.24947       45.73779       44.32492
C         52.88629       46.13115       45.68808
C         53.30358       47.58066       45.96189
O         52.84648       48.16805       46.93223
C         53.47764       45.13881       46.71313
C         54.89824       45.46976       47.08900
N         55.22728       45.68871       48.37568
O         55.75395       45.56794       46.23263
H         54.22764       45.49974       44.12038
H         51.78105       46.06794       45.77376
H         53.42203       44.10334       46.30910
H         52.87289       45.16727       47.64114
H         54.52825       45.62682       49.12765
H         56.19367       45.91225       48.61012
N         54.17370       48.20686       45.11766
C         54.55809       49.60013       45.17449
C         56.06265       49.83274       45.24197
O         56.44858       50.99514       45.20980
H         54.56064       47.67705       44.35393
H         54.05190       50.12922       46.00401
H         54.21503       50.05847       44.21785
N         56.98657       48.81695       45.28122
C         58.42744       49.09529       45.22540
C         59.23703       47.99136       44.57220
O         58.82645       46.83799       44.57008
C         58.99415       49.53899       46.59666
C         58.79801       48.50032       47.67987
C         57.84247       48.72089       48.68557
C         59.54975       47.31004       47.69581
C         57.61731       47.75756       49.67015
C         59.32149       46.34590       48.68421
C         58.34470       46.56185       49.66601
O         58.06932       45.61339       50.58502
H         56.66557       47.83794       45.26095
H         58.55862       49.94299       44.51606
H         58.45386       50.46656       46.87989
H         60.07125       49.80816       46.52543
H         57.25143       49.62799       48.68962
H         60.30771       47.12562       46.94573
H         56.85116       47.92477       50.41702
H         59.89249       45.42605       48.68028
H         58.48127       44.73805       50.55222
N         60.41351       48.30389       43.96104
C         61.21837       47.35586       43.20426
C         62.30316       46.81112       44.11736
O         63.03207       47.59508       44.71740
C         61.87784       48.06501       41.97676
C         60.86409       48.82345       41.07971
C         62.66416       47.04522       41.11937
C         61.57989       49.89863       40.24704
H         60.72723       49.28880       43.98632
H         60.57561       46.53323       42.80668
H         62.57664       48.82698       42.38686
H         60.12364       49.37870       41.69092
H         60.30152       48.11467       40.43408
H         63.09070       47.49290       40.20144
H         63.51038       46.62243       41.69191
H         61.99530       46.21682       40.80042
H         62.04214       50.64259       40.93509
H         62.38066       49.48196       39.60610
H         60.85778       50.43553       39.59988
N         62.51736       45.47263       44.21011
C         63.60237       44.86850       44.96879
C         64.69155       44.43096       44.02093
O         64.52706       44.59699       42.82182
C         63.07418       43.65292       45.75271
O         62.63065       42.65067       44.87102
H         61.95579       44.85982       43.61670
H         64.04350       45.60616       45.67534
H         62.26270       43.96784       46.44748
H         63.87909       43.21541       46.37730
H         61.64067       42.65486       44.88090
N         65.85349       43.88636       44.46827
C         66.90035       43.43532       43.55709
C         66.47356       42.19431       42.77020
O         66.94044       41.99639       41.66089
C         68.18825       43.15175       44.32538
H         66.00581       43.81887       45.48973
H         67.12457       44.26609       42.84788
H         68.46994       44.05488       44.91016
H         68.04609       42.30209       45.02578
H         69.01534       42.92052       43.62201
N         65.57861       41.31634       43.31165
C         65.03168       40.16474       42.58754
C         64.24663       40.63111       41.37381
O         64.32528       40.01752       40.31732
C         64.11095       39.38119       43.53713
H         65.23686       41.49421       44.26600
H         65.83879       39.47081       42.26704
H         64.71680       38.96642       44.37282
H         63.32806       40.04146       43.96931
H         63.61660       38.53622       43.01347
N         63.45745       41.72766       41.47559
C         62.69353       42.30991       40.37798
C         63.60686       42.98632       39.35952
O         63.40051       42.80144       38.16878
C         61.64408       43.26535       40.99386
C         60.59265       42.39976       41.73461
C         59.56347       43.15253       42.52647
O         58.38518       43.01436       42.27113
O         59.91148       43.87885       43.59644
H         63.41161       42.19284       42.39517
H         62.11057       41.52948       39.83881
H         61.13262       43.86527       40.21471
H         62.15995       43.96649       41.67450
H         61.08490       41.69833       42.43791
H         60.07452       41.78767       40.96653
N         64.67014       43.73939       39.76013
C         65.58963       44.38623       38.84518
H         66.59949       43.94151       38.97469
H         65.28676       44.27953       37.78379
H         65.65121       45.46879       39.08830
H         64.87220       43.82203       40.75414
Ca        57.06483       44.56094       44.27205
O         58.87109       43.67599       46.63058
H         58.23202       43.50211       47.36675
H         59.75606       43.44265       47.00809

Ca 1.70



