%chk=loop2.cluster172.chk
%nprocshared=48
%mem=10GB
%nosave
#b3lyp/svp scf=(tight,noincore) Test 
#IOP(5/87=12) Density=Current Pop=(MK,readradii) iop(6/33=2) iop(6/42=6)

loop2.cluster172 

   -2  1 
C         58.40661       49.35809       18.05536
C         59.49776       49.28328       17.04457
O         60.27222       50.21406       16.94137
H         57.44437       49.07987       17.57671
H         58.63400       48.64284       18.87279
H         58.32971       50.38496       18.46612
N         59.60795       48.16857       16.27590
C         60.62867       47.91394       15.26037
C         60.54005       48.90289       14.07661
O         60.05045       48.53306       13.01815
C         60.42317       46.44409       14.82513
C         61.48741       45.92673       13.94329
O         62.69504       46.51740       13.92118
O         61.17762       45.15947       13.04628
H         58.90953       47.42713       16.44696
H         61.63279       47.95880       15.71303
H         59.44326       46.34871       14.30596
H         60.40005       45.77231       15.70978
N         60.97733       50.19435       14.20544
C         60.78914       51.22165       13.18265
C         61.74633       51.10323       12.00668
O         61.58327       51.83456       11.03974
C         60.97132       52.60252       13.82396
H         61.41655       50.48272       15.08055
H         59.73907       51.15763       12.82070
H         60.74312       53.41239       13.10027
H         60.28205       52.70066       14.69027
H         62.01501       52.72268       14.18983
N         62.77500       50.21145       12.02840
C         63.68903       50.01059       10.90866
C         63.44964       48.64759       10.26193
O         64.11133       48.32939        9.28298
C         65.14423       50.25382       11.37577
C         65.65215       49.35180       12.47552
O         64.90549       48.34013       12.95644
O         66.76535       49.54292       12.93661
H         62.89861       49.62230       12.85934
H         63.49258       50.75395       10.10406
H         65.20065       51.30205       11.74617
H         65.83503       50.16633       10.50945
N         62.46014       47.82073       10.71994
C         62.07309       46.58135       10.07895
C         63.19610       45.58437       10.04200
O         63.52564       45.11398        8.96308
H         61.90879       48.09235       11.53808
H         61.70296       46.79422        9.05191
H         61.22593       46.14201       10.64870
N         63.84232       45.22262       11.19076
C         64.95838       44.28674       11.20808
C         64.68540       43.03148       12.05221
O         65.41408       42.06036       11.90980
C         66.25866       45.03237       11.59623
C         66.62452       44.95160       13.04886
N         67.75609       44.32261       13.43703
O         65.90318       45.45264       13.87923
H         63.57174       45.67159       12.05924
H         65.10836       43.93406       10.16866
H         66.18906       46.10475       11.29477
H         67.09111       44.58635       11.02542
H         68.37665       43.88621       12.74223
H         68.00883       44.26813       14.43175
N         63.67704       42.99719       12.97674
C         63.30671       41.81384       13.74035
C         63.65357       41.92195       15.20946
O         63.23324       41.06239       15.97120
H         63.14514       43.84712       13.16996
H         63.77904       40.89126       13.34424
H         62.20437       41.69330       13.64634
N         64.47403       42.90782       15.67384
C         64.88883       43.00163       17.06553
C         64.79516       44.46977       17.54056
O         65.65294       45.38993       16.93610
C         66.26679       42.30723       17.27848
C         66.11463       40.77953       17.33889
O         67.16299       42.62640       16.24763
H         64.88341       43.57229       15.00897
H         64.15642       42.48109       17.71894
H         66.69886       42.57810       18.26622
H         67.62721       43.45817       16.51389
H         65.72021       40.36352       16.38991
H         67.09656       40.30291       17.54490
H         65.42646       40.50008       18.16803
N         64.83750       44.60230       19.00363
C         65.00934       45.99315       19.46307
C         66.47457       46.40171       19.43037
O         67.30831       45.70578       19.99693
C         64.42148       46.19706       20.87612
C         63.05183       45.49109       20.98679
C         64.26495       47.71005       21.16447
C         62.44753       45.58670       22.37864
H         65.46721       43.93206       19.49624
H         64.41952       46.64494       18.80323
H         65.12061       45.74010       21.61094
H         63.17995       44.40821       20.77459
H         62.34459       45.90984       20.23626
H         63.45612       48.14445       20.53339
H         64.02106       47.89535       22.22843
H         65.19205       48.26575       20.95105
H         63.15782       45.16625       23.12173
H         62.20971       46.63725       22.63757
H         61.50587       45.00238       22.40135
N         66.84083       47.56747       18.83077
C         68.21095       48.07059       18.83972
C         68.30917       49.13174       19.92003
O         67.30300       49.43028       20.54434
C         68.62470       48.61869       17.44250
C         67.65561       48.27854       16.34116
O         66.88184       49.24777       15.81384
O         67.52165       47.12656       15.96681
H         66.10148       48.17133       18.44593
H         68.91328       47.25725       19.12902
H         69.65034       48.28254       17.17098
H         68.65189       49.72363       17.48388
N         69.48996       49.70372       20.26190
C         69.58620       50.61008       21.39948
C         68.80562       51.91750       21.19564
O         67.99391       52.22474       22.05283
C         71.05162       50.80202       21.83074
C         71.18919       51.71776       23.02486
C         72.00776       52.85434       22.93610
C         70.50897       51.45125       24.23032
C         72.14217       53.71296       24.02899
C         70.63914       52.32042       25.31711
C         71.45553       53.44948       25.21673
H         70.34703       49.42155       19.75780
H         69.11699       50.09519       22.26902
H         71.66754       51.17454       20.99360
H         71.45720       49.80249       22.10196
H         72.54413       53.07174       22.02097
H         69.87358       50.58083       24.32939
H         72.77830       54.58436       23.95285
H         70.10663       52.11832       26.23777
H         71.55738       54.11988       26.05957
N         68.96940       52.73045       20.09825
C         68.18535       53.95158       19.91167
C         66.68464       53.68519       19.94111
O         65.91079       54.59092       20.23066
C         68.56978       54.39833       18.48825
C         69.93691       53.77952       18.26487
C         69.85183       52.44807       18.99683
H         68.49883       54.67709       20.69367
H         67.89821       53.90411       17.75144
H         68.52520       55.49817       18.32427
H         70.24497       53.69097       17.19948
H         70.67422       54.40874       18.80633
H         69.38844       51.65377       18.38003
H         70.87708       52.16838       19.29206
N         66.20603       52.47272       19.54377
C         64.79399       52.13209       19.47206
C         64.22371       52.02986       20.87892
O         63.22840       52.67112       21.17830
C         64.66277       50.82933       18.65881
C         63.25836       50.56553       18.12163
C         63.32006       49.43670       17.14308
O         63.54833       49.65681       15.96354
O         63.22723       48.17328       17.57689
H         66.88772       51.76063       19.23644
H         64.26749       52.91670       18.88369
H         65.04456       49.96415       19.23342
H         65.30514       50.95530       17.75599
H         62.90695       51.46543       17.57170
H         62.53187       50.33969       18.93002
N         64.87434       51.28621       21.81869
C         64.48326       51.26198       23.21035
H         63.45542       50.86479       23.32500
H         65.18705       50.61464       23.78045
H         64.55029       52.28780       23.63201
H         65.71491       50.76901       21.55364
Ca        64.32731       46.54699       15.47819

Ca 1.70



