%chk=loop1.cluster154.chk
%nprocshared=48
%mem=10GB
%nosave
#b3lyp/svp scf=(tight,noincore) Test 
#IOP(5/87=12) Density=Current Pop=(MK,readradii) iop(6/33=2) iop(6/42=6)

loop1.cluster154 

   0  1 
C         49.56288       40.64888        6.07606
C         49.59471       39.89495        4.78667
O         50.61132       39.90447        4.10803
H         48.78770       41.44149        6.04576
H         49.32348       39.93234        6.89149
H         50.55483       41.10028        6.28823
N         48.52408       39.15093        4.40895
C         48.60218       38.20670        3.30538
C         48.30074       38.84473        1.94598
O         47.16186       39.19551        1.67486
C         47.81447       36.90989        3.60560
C         46.36392       37.05459        3.98098
O         45.49689       36.59561        3.25601
O         46.02083       37.56045        5.18094
H         47.72454       39.12183        5.05301
H         49.65540       37.85905        3.26723
H         48.32130       36.36982        4.42952
H         47.88009       36.25414        2.73637
N         49.32570       39.04886        1.05574
C         49.20432       39.73028       -0.22443
C         49.82156       39.04253       -1.47731
O         49.70767       39.68872       -2.51029
C         49.81741       41.15654       -0.05488
C         49.05578       42.00005        0.99487
C         47.67691       42.46312        0.47475
C         46.77823       43.05676        1.57116
N         46.15875       42.00726        2.38709
H         50.26148       38.81545        1.36455
H         48.13670       39.84848       -0.48552
H         49.81756       41.72635       -1.01136
H         50.87856       41.04654        0.26241
H         49.63770       42.91948        1.22853
H         48.98160       41.42722        1.93799
H         47.09776       41.65541       -0.01108
H         47.87285       43.23496       -0.30120
H         45.95850       43.61852        1.07280
H         47.34769       43.76913        2.20748
H         46.87619       41.45165        2.90252
H         45.50979       42.44495        3.07927
H         45.59095       41.37445        1.77468
N         50.44461       37.81045       -1.59880
C         50.76726       36.76503       -0.62847
C         49.68805       36.41792        0.35842
O         49.99328       36.33498        1.53365
C         52.21204       36.91801       -0.09898
C         52.63177       38.30568        0.30129
O         53.33312       38.96111       -0.45469
O         52.46188       38.72447        1.56626
H         50.74914       37.57375       -2.55701
H         50.83740       35.80980       -1.19436
H         52.88337       36.64563       -0.94147
H         52.42722       36.17740        0.70141
N         48.39985       36.15031       -0.01352
C         47.95403       35.98501       -1.37887
C         46.84192       34.94455       -1.48490
O         45.95265       35.16095       -2.29538
H         47.70055       35.96942        0.71347
H         48.76597       35.80108       -2.10954
H         47.48911       36.95464       -1.66332
N         46.74373       33.82170       -0.69631
C         47.77852       33.29930        0.19493
C         47.34545       33.30259        1.66395
O         46.23185       32.91443        1.98828
C         48.10387       31.85808       -0.23488
C         49.29932       31.22853        0.44991
O         50.10477       31.93850        1.26235
O         49.56999       30.06225        0.22124
H         45.88876       33.25065       -0.79370
H         48.73000       33.84226        0.07214
H         48.32677       31.85618       -1.32223
H         47.20592       31.22879       -0.05508
N         48.27268       33.61054        2.60773
C         48.06153       33.43295        4.04261
C         49.28615       33.71630        4.92070
O         49.22235       33.39976        6.10126
H         49.18053       33.88370        2.25045
H         47.77543       32.37164        4.21223
H         47.22937       34.07542        4.40058
N         50.42999       34.29765        4.44031
C         51.56548       34.64037        5.27399
C         52.04652       36.03110        4.90519
O         52.14300       36.34924        3.72575
C         52.73645       33.63556        5.09387
C         52.34919       32.22649        5.54997
O         53.81870       34.05364        5.88808
H         50.51694       34.56861        3.46213
H         51.29974       34.61238        6.35281
H         53.04231       33.61172        4.01973
H         54.64258       33.66337        5.49285
H         52.01038       32.25173        6.60883
H         51.54518       31.80705        4.91346
H         53.23436       31.55643        5.48994
N         52.53791       36.83566        5.88216
C         53.33682       38.03775        5.63714
C         54.24031       37.91463        4.40414
O         54.27732       38.84972        3.62827
C         54.16347       38.38209        6.92574
C         55.10571       39.60420        6.77428
C         55.02194       37.18512        7.40061
C         54.43769       40.90040        6.32297
H         52.46980       36.48521        6.84737
H         52.64368       38.88711        5.44865
H         53.43808       38.61231        7.73802
H         55.91125       39.36480        6.06125
H         55.58698       39.79797        7.75801
H         55.60935       37.45506        8.30146
H         54.41828       36.29924        7.67461
H         55.72479       36.86946        6.61317
H         53.64247       41.20036        7.03461
H         55.20910       41.70022        6.28549
H         54.01022       40.80356        5.30532
N         54.94504       36.76886        4.14496
C         55.89417       36.55021        3.04164
C         57.26286       37.06872        3.41542
O         58.22496       36.32586        3.33366
C         55.41674       36.98332        1.64440
C         56.01900       36.10698        0.53486
O         55.67824       38.34178        1.40008
H         54.79036       35.97235        4.77027
H         55.98993       35.44163        2.98764
H         54.33401       36.80668        1.60269
H         56.60218       38.43410        1.04380
H         55.71933       35.04773        0.68989
H         55.63128       36.43478       -0.45248
H         57.12694       36.17138        0.53717
N         57.36970       38.30182        3.98405
C         58.48283       38.77303        4.78704
C         59.70937       39.14068        4.00360
O         59.96641       38.57081        2.94726
C         58.75899       37.82056        5.98549
C         59.34413       38.52270        7.20727
O         59.62342       36.78758        5.60927
H         56.54650       38.90295        3.99006
H         58.10799       39.72762        5.21950
H         57.79800       37.40687        6.34917
H         59.09267       35.97079        5.43791
H         60.32085       38.98876        6.99096
H         58.63078       39.29399        7.57025
H         59.49548       37.77930        8.01841
N         60.54712       40.08669        4.50799
C         61.81486       40.43072        3.93318
C         62.04931       41.91944        3.61341
O         63.13759       42.15789        3.11338
C         62.90874       39.91135        4.90871
C         62.90390       38.37165        5.09244
C         63.24699       37.60886        3.79121
C         63.32677       36.07853        3.95800
N         62.02758       35.47596        4.24848
H         60.31973       40.50196        5.41223
H         61.95244       39.92159        2.95760
H         62.74295       40.38543        5.90465
H         63.92095       40.20813        4.56438
H         61.92330       38.05265        5.49050
H         63.67129       38.11682        5.85648
H         64.24294       37.96200        3.44908
H         62.51092       37.82075        2.99201
H         64.04631       35.82547        4.76587
H         63.70399       35.64131        3.00734
H         62.13854       34.44434        4.37206
H         61.66961       35.85366        5.14531
H         61.35484       35.65322        3.46510
N         61.20455       43.00424        3.79160
C         59.84745       43.17521        4.32215
C         59.71814       42.91960        5.81740
O         58.91206       42.10727        6.24021
C         58.73353       42.56428        3.44289
C         57.36540       43.18249        3.81408
C         56.26328       42.60740        2.99687
O         56.00167       41.29496        3.03650
O         55.58234       43.33207        2.29026
H         61.61640       43.89820        3.47269
H         59.64638       44.26840        4.23452
H         58.69669       41.46957        3.53389
H         58.93432       42.81563        2.37746
H         57.39867       44.28245        3.64104
H         57.11557       43.01226        4.87906
N         60.43396       43.68355        6.68526
C         60.28214       43.53270        8.11782
H         59.21423       43.65388        8.40265
H         60.63789       42.53004        8.43364
H         60.87436       44.31252        8.64054
H         61.06201       44.41303        6.32433
Ca        54.38375       40.65611        1.63898
O         52.42988       42.23071        2.55704
H         52.00991       41.45742        3.00369
H         51.76987       42.95941        2.63534
O         55.98993       41.57825       -0.32992
H         55.75811       41.51471       -1.28902
H         56.40362       42.47005       -0.21997

Ca 1.70



