%chk=loop4.cluster160.chk
%nprocshared=48
%mem=10GB
%nosave
#b3lyp/svp scf=(tight,noincore) Test 
#IOP(5/87=12) Density=Current Pop=(MK,readradii) iop(6/33=2) iop(6/42=6)

loop4.cluster160 

   -3  1 
C         68.79597       54.25565       44.57734
C         68.19891       54.82425       45.82332
O         67.85624       55.99635       45.85116
H         69.81951       53.89112       44.80397
H         68.17340       53.40572       44.22605
H         68.84972       55.02349       43.77788
N         68.03779       54.02670       46.91020
C         67.45294       54.50257       48.15214
C         68.30432       55.60524       48.78404
O         69.45611       55.37666       49.12663
C         67.26028       53.31486       49.10470
C         66.76955       53.76140       50.43251
O         65.72280       54.37617       50.53334
O         67.52299       53.52518       51.51538
H         68.31826       53.03587       46.83561
H         66.43761       54.90217       47.93066
H         68.22670       52.78713       49.25210
H         66.53061       52.59818       48.66766
N         67.75515       56.83750       48.96794
C         68.44924       57.99173       49.52575
C         68.27446       58.01640       51.05046
O         69.25972       58.02641       51.77312
C         67.86003       59.30135       48.87706
C         67.99469       59.27482       47.32701
C         68.52837       60.56056       49.45577
C         67.30894       60.44643       46.60901
H         66.79942       56.97874       48.63465
H         69.53201       57.94680       49.26687
H         66.77540       59.35410       49.11631
H         67.52027       58.35589       46.93092
H         69.06811       59.25492       47.04309
H         69.60661       60.57949       49.19348
H         68.04267       61.47889       49.06919
H         68.42079       60.59801       50.55869
H         66.22980       60.48942       46.84707
H         67.75956       61.42144       46.87366
H         67.41031       60.31408       45.51111
N         67.02272       58.11076       51.58659
C         66.73715       58.34792       53.00468
C         66.99782       57.15965       53.94200
O         66.93529       57.35081       55.14927
C         65.29207       58.89637       53.17735
C         64.24086       58.05149       52.51922
O         63.42510       58.56167       51.76829
O         64.30056       56.72369       52.60649
H         66.24518       58.14112       50.93500
H         67.40664       59.16721       53.34234
H         65.23328       59.89766       52.69589
H         65.06358       59.02795       54.25399
N         67.34897       55.93113       53.47483
C         67.81970       54.85839       54.34847
C         66.72926       53.99924       54.95834
O         66.78036       53.72114       56.14774
H         67.42424       55.79377       52.45953
H         68.52323       55.25079       55.11558
H         68.42270       54.16973       53.72464
N         65.75013       53.48144       54.16651
C         64.75128       52.51014       54.62054
C         64.78382       51.22381       53.79221
O         64.00327       50.32980       54.08274
C         63.33322       53.14490       54.62626
C         62.84984       53.78725       53.36030
O         61.79730       54.40388       53.36598
O         63.59389       53.79894       52.25531
H         65.72607       53.78601       53.18889
H         64.94881       52.20686       55.67198
H         63.34555       53.95904       55.38059
H         62.57724       52.39353       54.93863
N         65.66282       51.04409       52.75708
C         65.62748       49.87750       51.88350
C         64.41634       49.86252       50.96192
O         64.23392       48.88894       50.24514
H         66.38227       51.74521       52.57203
H         65.65222       48.95710       52.50469
H         66.52845       49.87932       51.23253
N         63.55474       50.91833       50.92007
C         62.32893       50.95017       50.14219
C         62.42478       52.08813       49.15124
O         62.35795       53.24378       49.55049
C         61.12755       51.15421       51.10160
C         61.11217       50.09263       52.21603
C         60.02509       50.31083       53.23518
N         59.26076       49.27478       53.65094
O         59.87154       51.41581       53.73538
H         63.76253       51.73449       51.48199
H         62.19587       49.99411       49.59327
H         60.17249       51.14819       50.53625
H         61.23153       52.14855       51.59404
H         62.05818       50.16782       52.77040
H         61.05347       49.07202       51.78262
H         59.41943       48.32505       53.28400
H         58.54147       49.41618       54.37541
N         62.67528       51.83412       47.83840
C         62.84244       52.91032       46.87414
C         61.47417       53.48547       46.59671
O         60.62378       52.78559       46.06099
C         63.57403       52.40721       45.59719
C         63.74236       53.51387       44.53879
C         64.97395       51.87994       45.97212
H         62.80071       50.85753       47.53449
H         63.50827       53.68439       47.31351
H         62.98332       51.57940       45.14878
H         62.75923       53.90865       44.21038
H         64.35273       54.35383       44.93476
H         64.25835       53.10486       43.64239
H         64.92135       51.08452       46.74322
H         65.48105       51.45175       45.08325
H         65.60109       52.70422       46.37436
N         61.19308       54.76762       46.94824
C         59.92155       55.40598       46.69176
C         60.06076       56.26388       45.46516
O         61.14021       56.32432       44.88730
C         59.36780       56.09480       47.96541
C         60.32497       57.01066       48.69327
N         60.31340       58.34592       48.48275
O         61.07056       56.54300       49.53932
H         61.93701       55.34591       47.33870
H         59.16222       54.65174       46.38933
H         59.10187       55.28882       48.68519
H         58.41602       56.62545       47.75640
H         59.67476       58.76439       47.79317
H         60.94253       58.95987       49.02379
N         58.96304       56.82759       44.91135
C         58.95095       57.33933       43.55078
C         59.96968       58.44203       43.30891
O         60.62838       58.44308       42.28173
C         57.54645       57.85430       43.20643
C         57.46667       58.09907       41.73027
C         57.43098       57.00618       40.84897
C         57.47126       59.40362       41.22291
C         57.39991       57.21693       39.47207
C         57.45647       59.61324       39.84271
C         57.42105       58.51892       38.96286
O         57.41524       58.71000       37.62961
H         58.06943       56.77103       45.42880
H         59.19182       56.48462       42.87769
H         57.35403       58.77675       43.79819
H         56.76316       57.11160       43.47639
H         57.42733       55.99260       41.23441
H         57.51618       60.25185       41.89520
H         57.37016       56.36739       38.80167
H         57.48091       60.62373       39.45789
H         57.45423       59.59697       37.24581
N         60.10681       59.43448       44.21910
C         61.04774       60.54368       44.07633
C         62.49092       60.06636       43.99380
O         63.26293       60.62738       43.22511
C         60.76723       61.51414       45.24041
C         61.72896       62.69342       45.36826
C         61.15202       63.75329       46.27409
O         61.50861       64.91274       46.14581
O         60.14543       63.46217       47.12482
H         59.51701       59.39119       45.06342
H         60.83452       61.09969       43.13628
H         60.74086       60.98188       46.21610
H         59.74527       61.90998       45.02951
H         61.89655       63.14016       44.36689
H         62.70441       62.34178       45.77316
N         62.91830       59.01719       44.73964
C         64.28032       58.49058       44.66067
C         64.49683       57.72765       43.35232
O         65.63398       57.54701       42.94116
C         64.54228       57.52411       45.83081
C         64.16085       58.12525       47.19780
C         64.29015       57.13582       48.29806
O         64.62430       57.56015       49.51375
O         63.94590       55.98130       48.14788
H         62.23688       58.56975       45.36415
H         64.99533       59.34166       44.74550
H         65.60989       57.21668       45.83434
H         63.91668       56.62115       45.67234
H         63.10601       58.44422       47.23128
H         64.75446       59.02371       47.44202
N         63.43087       57.17063       42.70411
C         63.52637       56.39078       41.48849
H         64.56332       56.30986       41.10795
H         63.13155       55.37017       41.68436
H         62.89043       56.86055       40.70715
H         62.49830       57.27702       43.10509
Ca        63.24915       55.55798       51.01917

Ca 1.70



