%chk=loop4.cluster101.chk
%nprocshared=48
%mem=10GB
%nosave
#b3lyp/svp scf=(tight,noincore) Test 
#IOP(5/87=12) Density=Current Pop=(MK,readradii) iop(6/33=2) iop(6/42=6)

loop4.cluster101 

   -3  1 
C         28.01463       17.15740        4.47252
C         28.24701       18.26207        3.48335
O         29.34799       18.78704        3.43269
H         26.98398       16.75037        4.39514
H         28.72555       16.33173        4.25341
H         28.18360       17.52013        5.50640
N         27.25858       18.62316        2.61531
C         27.44075       19.56113        1.51271
C         28.67205       19.18745        0.62458
O         29.63946       20.17658        0.83821
C         27.38456       21.07024        1.89806
C         28.23069       21.47033        3.06858
O         27.73732       21.32439        4.31337
O         29.27089       22.08637        2.89869
H         26.35479       18.12830        2.67117
H         26.53233       19.44467        0.88029
H         26.34853       21.37804        2.13866
H         27.67460       21.66862        1.00231
N         28.24142       19.24469       -0.79271
C         29.23217       19.11995       -1.88978
C         30.29012       20.20578       -1.80316
O         31.47437       19.94886       -1.96926
C         29.73379       17.66058       -2.15441
C         28.55825       16.79236       -2.68571
C         30.44948       17.04313       -0.94530
C         28.91756       15.34294       -3.00382
H         27.40055       18.65341       -0.97502
H         28.68414       19.41521       -2.81224
H         30.47883       17.70541       -2.98075
H         28.21061       17.26312       -3.63244
H         27.70530       16.76642       -1.97936
H         31.29552       17.69299       -0.64674
H         29.76447       16.90223       -0.08639
H         30.87789       16.05380       -1.21076
H         28.06434       14.87073       -3.53792
H         29.81726       15.28605       -3.64997
H         29.08714       14.77322       -2.06621
N         29.87674       21.48217       -1.56295
C         30.74605       22.65171       -1.52453
C         31.82564       22.51396       -0.46144
O         31.48266       22.40460        0.70081
C         29.85720       23.88288       -1.22871
C         30.55974       25.20996       -1.14062
O         29.89871       26.22334       -0.98600
O         31.90041       25.30082       -1.20981
H         28.86588       21.62746       -1.40900
H         31.18538       22.78017       -2.53028
H         29.31178       23.72338       -0.26925
H         29.10566       23.94532       -2.04424
N         33.15756       22.54429       -0.76016
C         33.68155       22.69604       -2.10902
C         35.19949       22.66547       -2.16920
O         35.84844       22.65556       -1.12835
H         33.81618       22.45132        0.02241
H         33.34247       23.67001       -2.52899
H         33.29416       21.86795       -2.73256
N         35.87352       22.67460       -3.35244
C         35.21585       22.66552       -4.65676
C         34.77376       21.25447       -5.06849
O         33.62007       21.10856       -5.45433
C         36.10812       23.31060       -5.74666
C         36.70788       24.61566       -5.29066
O         35.91623       25.63796       -4.91523
O         37.92181       24.74279       -5.24272
H         36.90253       22.71695       -3.32576
H         34.33551       23.34503       -4.61948
H         35.49415       23.49179       -6.65679
H         36.93300       22.64685       -6.04847
N         35.60488       20.15803       -5.06452
C         36.95692       20.17645       -4.50769
C         37.77064       18.92797       -4.75919
O         37.30890       17.99941       -5.40520
H         35.23557       19.27042       -5.43651
H         36.89653       20.33471       -3.41281
H         37.54807       20.97649       -4.97179
N         39.06052       18.89265       -4.30095
C         39.98587       17.81830       -4.62094
C         40.44205       17.11369       -3.35201
O         41.62832       16.87313       -3.17240
C         41.17883       18.37428       -5.43378
C         40.80605       18.97892       -6.80319
C         39.99502       20.25250       -6.74246
N         39.04313       20.50096       -7.67248
O         40.23860       21.09261       -5.88860
H         39.41259       19.68400       -3.74400
H         39.48673       17.04067       -5.24022
H         41.88493       17.53932       -5.63830
H         41.72445       19.13521       -4.83127
H         40.29520       18.21743       -7.43267
H         41.75730       19.24248       -7.30959
H         38.86612       19.83130       -8.43530
H         38.51183       21.38417       -7.65126
N         39.50367       16.65182       -2.48103
C         39.80456       15.70075       -1.41446
C         39.20540       16.09441       -0.07870
O         38.07803       16.56107       -0.01766
C         39.28278       14.29772       -1.81880
C         40.19268       13.69127       -2.89501
C         37.82313       14.31531       -2.30941
H         38.51746       16.88172       -2.66493
H         40.90200       15.59251       -1.26100
H         39.34639       13.62414       -0.93523
H         39.81158       12.69746       -3.20584
H         40.25892       14.34639       -3.78821
H         41.21497       13.55069       -2.47939
H         37.14634       14.72613       -1.53310
H         37.71639       14.91604       -3.23822
H         37.49364       13.28497       -2.54818
N         39.92446       15.85083        1.05414
C         39.43178       16.09736        2.40306
C         40.07196       17.35697        2.97057
O         39.88359       17.64285        4.14528
C         39.71638       14.86187        3.27350
C         39.02423       13.64151        2.71779
N         39.67753       12.80410        1.87838
O         37.85639       13.42435        3.00482
H         40.88321       15.48340        0.96285
H         38.33596       16.24227        2.40877
H         39.36406       15.02684        4.31640
H         40.81311       14.68949        3.31914
H         40.65285       12.99186        1.60403
H         39.19800       11.98090        1.48500
N         40.79749       18.19150        2.16712
C         41.31851       19.49122        2.57877
C         40.16881       20.41772        2.96360
O         39.34820       20.72789        2.11260
C         42.09965       20.06927        1.37455
C         42.57804       21.47995        1.53645
C         43.79051       21.75563        2.18110
C         41.82138       22.53234        0.99550
C         44.24214       23.07538        2.28210
C         42.26564       23.84726        1.10870
C         43.48042       24.12412        1.74994
O         43.92277       25.39238        1.85464
H         40.95932       17.91284        1.18881
H         42.00494       19.35883        3.44202
H         41.42941       20.04409        0.48476
H         42.95587       19.40720        1.11636
H         44.39048       20.94897        2.58469
H         40.88276       22.33172        0.49262
H         45.18608       23.28287        2.76864
H         41.66689       24.64845        0.69498
H         43.41630       26.13479        1.49479
N         40.03342       20.86217        4.25394
C         38.93235       21.71471        4.72935
C         37.55500       21.04012        4.61685
O         36.56048       21.65562        4.97912
C         38.94159       23.09024        4.01602
C         40.29784       23.81887        4.08892
C         40.69504       24.20768        5.48475
O         39.91824       25.04309        6.20050
O         41.74361       23.80077        5.95965
H         40.73805       20.57261        4.94746
H         39.09752       21.90945        5.81276
H         38.15655       23.74653        4.45506
H         38.68801       22.95229        2.94561
H         40.23352       24.74817        3.48459
H         41.08529       23.17732        3.64284
N         37.43408       19.76069        4.15841
C         36.18693       19.04770        3.96743
C         36.03546       17.91018        4.97134
O         35.03561       17.21109        4.91196
C         36.15228       18.52609        2.50591
C         36.11654       19.65772        1.46951
C         34.86906       20.43085        1.67939
O         33.70218       19.76729        1.58124
O         34.91153       21.61465        1.96732
H         38.27027       19.23843        3.92575
H         35.31201       19.70818        4.15025
H         35.26356       17.87533        2.34988
H         37.04806       17.92062        2.30490
H         36.09604       19.22923        0.44289
H         37.00570       20.31033        1.55157
N         36.94910       17.70059        5.96537
C         36.71044       16.76599        7.04864
H         35.69615       16.31411        7.01087
H         37.46906       15.95906        7.03631
H         36.78210       17.32022        8.00909
H         37.81761       18.25000        6.00197
Ca        31.55668       20.17601        2.06949
O         32.38549       18.92761        4.73449
H         33.11641       18.44940        4.27580
H         32.61622       18.88719        5.69622
O         30.64754       20.93351        5.46738
H         30.63319       20.78861        6.44555
H         30.02463       21.68593        5.32464
O         32.05127       17.53762        1.95073
H         32.64303       17.23319        1.21883
H         31.70778       16.71557        2.37569
O         32.77774       22.54789        3.88794
H         32.44925       23.35588        3.42064
H         33.75971       22.59294        3.78819

Ca 1.70



