%chk=loop4.cluster115.chk
%nprocshared=48
%mem=10GB
%nosave
#b3lyp/svp scf=(tight,noincore) Test 
#IOP(5/87=12) Density=Current Pop=(MK,readradii) iop(6/33=2) iop(6/42=6)

loop4.cluster115 

   -3  1 
C         48.56936       52.00344       68.52026
C         48.56838       53.08938       69.54023
O         49.62568       53.55207       69.92229
H         48.02371       52.38795       67.63345
H         49.60007       51.72170       68.21883
H         48.03529       51.11980       68.92480
N         47.37358       53.56477       69.98738
C         47.16835       54.68269       70.90169
C         47.67633       56.02544       70.40365
O         48.81536       56.17062       69.98422
C         47.45588       54.38102       72.37157
C         48.83636       53.87902       72.60657
O         49.00839       52.72787       72.98348
O         49.86825       54.74969       72.51848
H         46.52633       53.10660       69.62540
H         46.06710       54.80733       70.93084
H         46.71918       53.61386       72.69322
H         47.25932       55.29037       72.99294
N         46.80240       57.06872       70.43253
C         47.02483       58.40444       69.90695
C         48.21087       59.07432       70.58723
O         49.07463       59.64032       69.93110
C         47.10232       58.41286       68.35245
C         46.69785       59.79891       67.78475
C         46.28683       57.26238       67.72404
C         45.18954       60.08407       67.77409
H         45.87458       56.90439       70.85180
H         46.10565       58.95767       70.20229
H         48.15631       58.22814       68.05372
H         47.03582       59.85526       66.73072
H         47.22057       60.60053       68.35058
H         45.25637       57.22341       68.13952
H         46.24641       57.34619       66.62107
H         46.78394       56.29434       67.94948
H         45.01939       61.09831       67.35637
H         44.67518       59.35928       67.10796
H         44.72988       60.04107       68.78231
N         48.29457       59.02971       71.93901
C         49.41072       59.58795       72.70357
C         50.68257       58.76001       72.54694
O         50.57306       57.57213       72.28667
C         49.06105       59.71983       74.20709
C         48.39535       58.51973       74.85271
O         49.04260       57.81147       75.79321
O         47.22349       58.26269       74.61841
H         47.52407       58.56468       72.42180
H         49.59539       60.61014       72.32173
H         48.36949       60.57656       74.33181
H         49.99553       59.96126       74.75876
N         51.94300       59.28628       72.67584
C         52.27996       60.69136       72.88159
C         53.30733       60.84905       73.98946
O         53.53451       59.89506       74.71909
H         52.74157       58.64897       72.53718
H         51.41774       61.34389       73.11272
H         52.72630       61.01583       71.92199
N         54.00195       62.00792       74.19914
C         53.94887       63.18407       73.33083
C         55.30182       63.87626       73.27826
O         56.11799       63.68261       74.16954
C         52.90743       64.20376       73.83291
C         53.13872       64.58712       75.26723
O         52.56657       63.86604       76.24843
O         53.77359       65.59296       75.54460
H         54.69248       62.00196       74.96453
H         53.70149       62.86537       72.30562
H         51.88952       63.78257       73.73906
H         52.91099       65.12968       73.22078
N         55.62952       64.72799       72.27558
C         54.80543       64.92230       71.07950
C         55.54138       65.59689       69.94736
O         54.89956       66.09462       69.03326
H         56.52473       65.21989       72.38413
H         53.90624       65.50948       71.34284
H         54.49628       63.94682       70.65007
N         56.90262       65.59002       69.91184
C         57.69839       66.21850       68.87650
C         57.50505       65.52880       67.53131
O         57.80797       66.11265       66.49987
C         59.17371       66.22253       69.34185
C         59.80595       64.81889       69.49502
C         61.20190       64.96518       70.02315
N         62.15892       65.53244       69.25698
O         61.47163       64.57885       71.15123
H         57.40981       65.10155       70.64493
H         57.36262       67.27727       68.80809
H         59.19703       66.71026       70.34750
H         59.78444       66.83955       68.65675
H         59.83064       64.28460       68.52386
H         59.23704       64.18238       70.20556
H         61.94308       65.83640       68.29609
H         63.11520       65.64899       69.61912
N         57.01111       64.25705       67.49606
C         56.71310       63.49877       66.28675
C         57.92670       62.71294       65.86237
O         58.86980       62.61228       66.63075
C         55.51107       62.55158       66.62383
C         55.26478       61.39404       65.64983
C         54.21260       63.34065       66.80318
H         56.88126       63.76882       68.39090
H         56.48550       64.19078       65.44221
H         55.73595       62.06865       67.60127
H         55.22023       61.74609       64.60154
H         56.06458       60.63095       65.77148
H         54.29908       60.90028       65.88692
H         54.36870       64.24617       67.41627
H         53.78660       63.63439       65.82087
H         53.48262       62.69290       67.33605
N         57.97228       62.21288       64.58368
C         59.06197       61.48075       63.94200
C         59.26425       60.05497       64.41417
O         59.37297       59.16103       63.58369
C         60.38980       62.26277       63.95954
C         60.20477       63.72004       63.60787
N         59.39404       64.10228       62.59125
O         60.75646       64.57053       64.28955
H         57.19545       62.46576       63.96053
H         58.79792       61.38500       62.86489
H         61.09644       61.78428       63.24186
H         60.85271       62.21092       64.96114
H         58.88652       63.41229       62.02083
H         59.23066       65.10268       62.41091
N         59.42189       59.78345       65.73117
C         60.10775       58.61810       66.22024
C         59.18062       57.62065       66.86894
O         58.42866       57.97779       67.76734
C         61.13481       59.08575       67.27211
C         62.10427       60.13245       66.75546
C         62.02391       61.45265       67.23625
C         63.09312       59.80743       65.81069
C         62.91151       62.43084       66.78051
C         63.98512       60.79074       65.35809
C         63.89277       62.10585       65.84011
O         64.73942       63.06131       65.40370
H         59.26727       60.51017       66.41316
H         60.66594       58.12942       65.39651
H         61.69127       58.21180       67.66505
H         60.56350       59.52795       68.12029
H         61.26103       61.72814       67.95253
H         63.18106       58.79543       65.43630
H         62.83133       63.44356       67.15608
H         64.74967       60.53359       64.63538
H         65.42204       62.87457       64.74325
N         59.33249       56.30508       66.52153
C         58.75206       55.12426       67.16093
C         57.30780       54.84392       66.79080
O         57.00508       53.73068       66.38325
C         59.05094       55.01811       68.66895
C         60.56653       54.98050       68.93564
C         60.85848       54.67235       70.37533
O         60.78075       53.52355       70.78351
O         61.24120       55.65368       71.21287
H         60.03328       56.10734       65.79791
H         59.29497       54.26167       66.71826
H         58.61638       54.06037       69.02759
H         58.58682       55.85217       69.23870
H         61.00073       55.96495       68.66643
H         61.06576       54.20309       68.31259
N         56.37222       55.81501       66.86101
C         54.99679       55.66175       66.40122
C         54.97947       55.39491       64.90958
O         54.09836       54.68906       64.43925
C         54.26051       56.99644       66.63457
C         54.24796       57.44585       68.11086
C         53.15074       56.90224       68.99143
O         52.47359       57.69561       69.62076
O         52.90235       55.59129       69.15562
H         56.66672       56.73275       67.18154
H         54.47700       54.84442       66.94954
H         53.23268       56.99255       66.21266
H         54.84388       57.76196       66.06872
H         54.10200       58.54561       68.09480
H         55.22674       57.29153       68.60524
N         55.91477       55.97386       64.09900
C         55.90281       55.83641       62.66083
H         55.88957       56.85127       62.21065
H         56.81858       55.30292       62.33267
H         55.01239       55.28436       62.29817
H         56.66965       56.54168       64.51374
Ca        51.40137       55.20235       70.85392
O         52.64506       53.06185       71.58057
H         52.11558       52.31798       71.95541
H         53.52625       53.01268       72.02211
O         53.49066       55.85804       72.24688
H         54.10142       55.14865       72.55879
H         53.52556       56.55699       72.94070

Ca 1.70



