%chk=loop3.cluster11.chk
%nprocshared=48
%mem=10GB
%nosave
#b3lyp/svp scf=(tight,noincore) Test 
#IOP(5/87=12) Density=Current Pop=(MK,readradii) iop(6/33=2) iop(6/42=6)

loop3.cluster11 

   0  1 

C         75.80996       47.59637       27.96586
C         75.62303       46.10719       27.92762
O         76.49946       45.40145       27.45166
H         76.75339       47.90365       27.46501
H         74.95712       48.09278       27.45695
H         75.84128       47.93015       29.02464
N         74.46925       45.56426       28.41062
C         74.19405       44.13143       28.44016
C         73.44881       43.69910       27.18401
O         72.39722       44.22102       26.84207
C         73.46013       43.76001       29.72689
C         72.87288       42.38388       29.71156
O         71.66428       42.26896       29.76919
O         73.64054       41.28429       29.60731
H         73.73657       46.20735       28.74402
H         75.16086       43.57855       28.48792
H         72.62474       44.47177       29.86410
H         74.15283       43.85022       30.57514
N         74.02772       42.73185       26.44211
C         73.73355       42.40634       25.06220
C         72.67895       41.34021       24.93974
O         71.70816       41.50745       24.21667
C         75.07227       41.90131       24.46715
C         75.00732       41.73049       22.97058
C         76.39044       41.42220       22.38828
C         76.53406       42.07631       21.01298
N         77.57878       41.41692       20.23731
H         74.90015       42.37519       26.81513
H         73.42882       43.32687       24.52399
H         75.41641       40.95614       24.94190
H         75.83970       42.68186       24.68518
H         74.62509       42.68904       22.56984
H         74.30346       40.91144       22.69674
H         76.49811       40.31554       22.35058
H         77.22256       41.83744       23.00302
H         76.77869       43.15594       21.17142
H         75.57894       42.03034       20.44761
H         77.29527       40.42343       20.06945
H         77.67860       41.89422       19.31339
H         78.48952       41.44037       20.74867
N         72.84863       40.18574       25.62085
C         71.90902       39.06811       25.60478
C         70.69031       39.30072       26.48479
O         69.84200       38.42023       26.56476
C         72.66374       37.77276       25.93740
C         73.48247       37.79659       27.17284
O         74.30794       36.92389       27.31068
O         73.44028       38.84430       28.01396
H         73.70084       40.11946       26.18549
H         71.53021       38.92124       24.56970
H         73.40159       37.62270       25.11746
H         71.99667       36.89208       25.97324
N         70.49179       40.50733       27.09390
C         69.25737       40.86712       27.76107
C         69.07656       40.19888       29.08927
O         67.94528       40.11055       29.54620
H         71.19110       41.24697       26.99288
H         68.40351       40.60249       27.09676
H         69.24124       41.96321       27.91975
N         70.14106       39.70551       29.78249
C         69.95879       38.78758       30.89799
C         70.13373       39.41276       32.27309
O         69.90936       38.73881       33.26963
C         70.86057       37.57773       30.64424
C         72.27802       37.69771       31.13148
N         72.80549       36.68770       31.85556
O         72.95719       38.66978       30.85343
H         71.09378       39.85267       29.41697
H         68.91609       38.40720       30.85487
H         70.87705       37.37191       29.55024
H         70.40809       36.70795       31.14667
H         72.23133       35.86021       32.06905
H         73.78631       36.70668       32.16372
N         70.48596       40.71983       32.39160
C         70.61530       41.41603       33.65263
C         71.96378       41.22936       34.30231
O         72.08129       41.49545       35.48937
H         70.62737       41.26877       31.54675
H         69.75560       41.21114       34.32714
H         70.57560       42.50285       33.42192
N         73.05908       40.89455       33.55699
C         74.41368       40.86513       34.10876
C         75.42617       41.27775       33.05366
O         75.35085       40.79065       31.93494
C         74.77889       39.45180       34.60210
C         73.92152       38.93183       35.72487
C         73.96288       39.55578       36.98091
C         73.12116       37.78862       35.54664
C         73.21064       39.04964       38.04429
C         72.38480       37.27664       36.61410
C         72.42355       37.90534       37.86323
O         71.71350       37.40377       38.89088
H         72.93547       40.71578       32.54989
H         74.50025       41.61039       34.92864
H         75.82140       39.47371       34.98849
H         74.74836       38.74566       33.74614
H         74.59540       40.42052       37.13579
H         73.07354       37.28310       34.59150
H         73.25529       39.53803       39.00984
H         71.78956       36.38267       36.47806
H         71.17532       36.60650       38.77670
N         76.45115       42.12991       33.36583
C         77.38410       42.62438       32.35917
C         78.76488       41.96998       32.46337
O         79.46381       42.15073       33.45221
C         77.56439       44.16106       32.47659
C         76.24130       44.92115       32.74984
C         78.28900       44.68464       31.22438
C         76.42641       46.42801       32.83665
H         76.54780       42.46684       34.33437
H         76.96775       42.40098       31.35123
H         78.21064       44.34611       33.36176
H         75.83643       44.59059       33.73069
H         75.48183       44.72483       31.97796
H         78.66079       45.71126       31.40468
H         79.17852       44.07105       30.98575
H         77.60497       44.66781       30.34882
H         77.22396       46.67343       33.56908
H         76.69347       46.84142       31.84232
H         75.46555       46.88384       33.15349
N         79.24376       41.28146       31.39201
C         80.58817       40.74748       31.27037
C         81.48482       41.68628       30.49940
O         81.02435       42.68421       29.97905
C         80.55362       39.37969       30.56228
O         80.37057       39.52738       29.17808
H         78.63655       41.19209       30.59982
H         81.02593       40.65480       32.28184
H         79.76889       38.73096       31.01355
H         81.52100       38.86124       30.68349
H         79.40500       39.49305       29.01007
N         82.81367       41.42966       30.44469
C         83.79124       42.33561       29.85351
C         83.66656       42.42715       28.35116
O         83.79908       43.50909       27.79516
C         85.18703       41.83631       30.21941
H         83.15274       40.57875       30.91901
H         83.67740       43.34739       30.29761
H         85.35845       40.82181       29.79885
H         85.96131       42.53943       29.85066
H         85.26649       41.77559       31.32695
N         83.41900       41.30398       27.63081
C         83.27617       41.28902       26.18223
C         82.14076       42.19348       25.74893
O         82.22541       42.82376       24.70347
C         83.01252       39.83783       25.75920
H         83.28972       40.41977       28.14556
H         84.22040       41.63773       25.70777
H         82.04950       39.48184       26.18798
H         83.00245       39.71881       24.65765
H         83.81862       39.19161       26.17335
N         81.04305       42.31258       26.53986
C         79.93362       43.19487       26.23243
C         80.34878       44.63834       26.49995
O         80.18144       45.47651       25.62653
C         78.69441       42.75237       27.04279
C         78.28854       41.28376       26.76155
C         77.18871       40.83477       27.67385
O         77.42658       40.58325       28.95455
O         76.09338       40.58058       27.23407
H         81.00437       41.76750       27.41390
H         79.66327       43.09926       25.15779
H         77.84043       43.40099       26.75787
H         78.90572       42.86286       28.12418
H         79.13472       40.57920       26.89971
H         77.94920       41.17071       25.71044
N         80.94227       44.99304       27.67548
C         81.50650       46.30832       27.88978
H         82.45946       46.39044       27.32213
H         80.80422       47.09704       27.55617
H         81.73831       46.45791       28.96772
H         81.07798       44.29453       28.40615
Ca        75.01203       39.51052       29.44878
O         75.11682       36.34724       30.07030
H         75.25476       35.37778       30.17992
H         74.37649       36.38303       29.43050
O         77.26895       37.56374       28.09376
H         77.14222       36.80493       28.71298
H         76.42878       37.60203       27.58448
O         76.98488       38.30123       31.27235
H         76.98789       38.28243       32.26110
H         77.25171       37.38575       31.00982

Ca 1.70



