%chk=loop2.cluster162.chk
%nprocshared=48
%mem=10GB
%nosave
#b3lyp/svp scf=(tight,noincore) Test 
#IOP(5/87=12) Density=Current Pop=(MK,readradii) iop(6/33=2) iop(6/42=6)

loop2.cluster162 

   -2  1 
C         62.58201       57.04004       16.23375
C         61.52954       57.66255       17.09084
O         61.81411       58.61446       17.80468
H         63.46643       56.80358       16.85981
H         62.20956       56.08888       15.79593
H         62.86053       57.73212       15.41481
N         60.26556       57.17054       17.06004
C         59.22429       57.65172       17.93981
C         59.39016       56.98924       19.29430
O         59.22439       55.78118       19.39291
C         57.86199       57.37103       17.28337
C         56.74335       57.63491       18.21805
O         55.92038       56.76699       18.43830
O         56.67967       58.80085       18.87194
H         60.04225       56.41281       16.39692
H         59.30229       58.75405       18.05144
H         57.78980       56.31349       16.94587
H         57.76344       58.02924       16.39162
N         59.75838       57.72592       20.38464
C         59.95548       57.11153       21.69485
C         58.63172       56.78748       22.38376
O         58.65315       56.20401       23.45978
C         60.72470       58.07280       22.61416
H         59.95739       58.73167       20.26554
H         60.59055       56.20715       21.55512
H         61.62828       58.46496       22.10214
H         60.08232       58.93339       22.90517
H         61.05147       57.54527       23.53679
N         57.44417       57.21405       21.85498
C         56.17777       57.19793       22.58136
C         55.20858       56.13611       22.05506
O         54.14830       55.96605       22.64013
C         55.54777       58.60054       22.46290
C         56.49046       59.69639       22.89227
O         56.89709       60.50665       22.07901
O         56.89774       59.78602       24.16920
H         57.44284       57.68020       20.94287
H         56.36187       56.96802       23.65548
H         54.60771       58.67212       23.04894
H         55.30513       58.75559       21.39388
N         55.54236       55.33453       21.00223
C         54.80569       54.12847       20.64861
C         53.59882       54.24810       19.73065
O         53.22034       53.22574       19.17603
H         56.46085       55.46050       20.55594
H         54.53757       53.54810       21.55734
H         55.52828       53.49221       20.09462
N         52.93568       55.41946       19.50430
C         51.73876       55.47176       18.64726
C         52.06129       55.80687       17.19007
O         51.14378       55.95892       16.39354
C         50.65677       56.36156       19.29028
C         51.04805       57.80709       19.42655
N         51.18277       58.37327       20.64732
O         51.23059       58.47973       18.42861
H         53.25125       56.27874       19.97644
H         51.25987       54.46767       18.60741
H         50.43414       55.94123       20.29438
H         49.71814       56.30663       18.69506
H         51.06157       57.81563       21.50357
H         51.43014       59.37066       20.73173
N         53.35118       55.85227       16.75620
C         53.74634       56.07434       15.37745
C         53.37257       57.43914       14.86132
O         52.83511       57.53768       13.76991
H         54.10451       55.66259       17.42347
H         53.33857       55.27812       14.71688
H         54.85578       56.01063       15.33414
N         53.65317       58.54582       15.60145
C         53.43804       59.90457       15.11384
C         54.73276       60.68446       15.30647
O         55.41665       60.49206       16.30038
C         52.21000       60.53960       15.80399
C         51.91440       61.94771       15.27713
O         51.07118       59.76595       15.52445
H         54.03167       58.41994       16.55005
H         53.19107       59.89743       14.02992
H         52.37040       60.60013       16.90029
H         51.06078       59.00742       16.15586
H         52.75333       62.64675       15.46824
H         51.71364       61.90833       14.18342
H         51.00500       62.34468       15.77772
N         55.12667       61.58289       14.36415
C         56.41874       62.26353       14.39393
C         56.25988       63.67590       14.93650
O         55.52975       64.47467       14.36934
C         57.04429       62.18745       12.96088
C         57.55200       60.74534       12.66138
C         58.13540       63.23643       12.67786
C         58.87808       60.38084       13.35344
H         54.48786       61.78435       13.58172
H         57.10853       61.75420       15.08579
H         56.22555       62.42456       12.24545
H         57.71323       60.61882       11.56957
H         56.77078       60.01699       12.96917
H         57.73443       64.26177       12.81677
H         59.01188       63.11505       13.34347
H         58.45921       63.15905       11.61733
H         58.84609       60.56105       14.44399
H         59.10800       59.30753       13.19176
H         59.71672       60.96692       12.91823
N         56.99305       64.04919       16.03251
C         57.09965       65.42065       16.52133
C         58.31037       66.04427       15.88705
O         58.98539       65.38759       15.10589
C         57.34523       65.43773       18.04561
C         56.35732       64.60274       18.76264
O         56.74726       63.36024       19.04966
O         55.20572       64.96619       18.92762
H         57.64711       63.36789       16.42983
H         56.18960       66.00108       16.25803
H         57.40440       66.45212       18.49047
H         58.33770       64.95377       18.21359
N         58.65309       67.32560       16.16612
C         59.76509       67.96687       15.50044
C         61.13185       67.35904       15.83806
O         61.83506       67.03764       14.89522
C         59.67996       69.49897       15.62354
C         60.72331       70.21666       14.79108
C         61.00200       69.82632       13.46123
C         61.42308       71.30211       15.34110
C         61.98480       70.48302       12.72432
C         62.38718       71.97463       14.58412
C         62.67605       71.55701       13.28236
H         58.04840       67.88070       16.79237
H         59.59584       67.77466       14.42209
H         59.71967       69.83205       16.68029
H         58.68059       69.79022       15.23264
H         60.48505       69.00587       12.98841
H         61.20950       71.63756       16.34848
H         62.20754       70.15585       11.71679
H         62.91329       72.81851       15.00828
H         63.43243       72.06775       12.70289
N         61.60758       67.16810       17.11536
C         62.91902       66.57026       17.35166
C         63.02161       65.14622       16.80538
O         64.12434       64.69375       16.52233
C         63.04596       66.56110       18.88148
C         62.09727       67.67003       19.31386
C         60.93065       67.53134       18.33343
H         63.67205       67.24608       16.88772
H         62.62393       65.61566       19.28545
H         64.09310       66.67183       19.24598
H         61.81544       67.64449       20.38915
H         62.59961       68.63921       19.09940
H         60.25201       66.69764       18.62045
H         60.38700       68.49282       18.29458
N         61.90739       64.36239       16.67739
C         61.93030       63.02012       16.09646
C         62.19189       63.10475       14.59375
O         62.89573       62.26355       14.05671
C         60.59435       62.28298       16.34919
C         60.32148       62.02998       17.85557
C         58.96578       61.41269       18.11522
O         58.21261       61.16285       17.19114
O         58.53821       61.19869       19.37625
H         60.99813       64.74435       16.98435
H         62.71602       62.40168       16.58425
H         60.62181       61.29276       15.84498
H         59.77502       62.87999       15.90019
H         60.35130       62.99579       18.40271
H         61.10830       61.36607       18.27192
N         61.68574       64.14286       13.86806
C         61.93248       64.31956       12.45332
H         63.01980       64.26359       12.23839
H         61.37802       63.55915       11.86638
H         61.57652       65.32845       12.14388
H         61.13962       64.86028       14.34410
Ca        56.28730       61.30303       19.65145
O         53.88170       62.15513       18.20643
H         53.90745       63.13935       18.17898
H         53.01640       61.95618       18.64149
O         53.89750       59.29968       19.22893
H         53.54300       59.00858       20.09997
H         54.25980       58.46304       18.85989
O         54.08012       62.05239       21.24219
H         53.54092       62.76589       20.81856
H         53.47857       61.64678       21.91394

Ca 1.70



