%chk=loop2.cluster46.chk
%nprocshared=48
%mem=10GB
%nosave
#b3lyp/svp scf=(tight,noincore) Test 
#IOP(5/87=12) Density=Current Pop=(MK,readradii) iop(6/33=2) iop(6/42=6)

loop2.cluster46 

   -2  1 
C         39.64251       44.58030        2.29718
C         38.37733       45.26542        2.73647
O         38.48417       46.39161        3.20058
H         40.37416       44.60292        3.13155
H         39.53825       43.53569        1.96978
H         40.06792       45.16218        1.45205
N         37.12431       44.73657        2.59953
C         36.76371       43.44281        2.01949
C         35.73457       42.73327        2.87531
O         34.90818       43.39187        3.47439
C         36.24133       43.60338        0.56627
C         35.22966       44.69200        0.25322
O         34.92219       44.88353       -0.91267
O         34.73151       45.51457        1.19926
H         36.34844       45.34329        2.88433
H         37.62547       42.75809        1.93399
H         35.82929       42.62773        0.21929
H         37.12828       43.82463       -0.06385
N         35.73638       41.36861        2.95829
C         34.72647       40.54803        3.63153
C         33.40923       40.51076        2.86709
O         33.07594       39.45945        2.33714
C         34.53615       40.90008        5.11006
H         36.50352       40.86101        2.49197
H         35.11861       39.50552        3.60931
H         35.51546       40.88381        5.63132
H         34.06832       41.89452        5.24699
H         33.87181       40.14483        5.58339
N         32.60782       41.61014        2.76292
C         31.35453       41.61254        2.02239
C         31.45010       42.45358        0.76977
O         32.33545       43.28599        0.66710
C         30.18863       41.97908        2.96293
C         30.28015       43.20488        3.86464
O         31.20246       44.19371        3.75199
O         29.46117       43.29728        4.76511
H         32.88040       42.47419        3.22789
H         31.13966       40.59234        1.63970
H         30.11106       41.11651        3.65983
H         29.23100       42.02489        2.39889
N         30.64282       42.17945       -0.30033
C         30.77039       42.87553       -1.57191
C         29.89584       44.10270       -1.60446
O         29.09477       44.25712       -2.51488
H         30.00591       41.37115       -0.25025
H         30.48564       42.19602       -2.40280
H         31.83225       43.16274       -1.74806
N         30.02650       45.03452       -0.62939
C         29.33720       46.30848       -0.59533
C         30.39016       47.40766       -0.63527
O         30.09921       48.53465       -0.25695
C         28.44653       46.33940        0.67427
C         29.18004       46.20622        1.99347
N         28.48650       45.98825        3.13320
O         30.39675       46.28775        2.03972
H         30.69394       44.85820        0.12466
H         28.65879       46.44384       -1.46740
H         27.74316       45.48193        0.58504
H         27.83599       47.26807        0.70544
H         27.46126       45.89299        3.11397
H         28.98268       45.88674        4.03098
N         31.65256       47.14050       -1.10781
C         32.70362       48.13432       -1.12320
C         33.14793       48.47897        0.28858
O         32.90132       47.69224        1.19010
H         31.87650       46.21570       -1.50157
H         32.30857       49.00552       -1.68114
H         33.59131       47.73444       -1.66211
N         33.75876       49.66000        0.59880
C         33.94384       50.74551       -0.36124
C         35.28420       51.48236       -0.19901
O         35.53429       52.41460       -0.94887
C         32.71774       51.68956       -0.19654
C         32.80629       52.58877        1.04418
O         32.55148       52.48849       -1.33618
H         33.90607       49.85454        1.60065
H         33.93340       50.34225       -1.39268
H         31.82079       51.02676       -0.09398
H         31.57795       52.69072       -1.39358
H         31.86887       53.17257        1.15392
H         32.96061       51.99499        1.96748
H         33.64338       53.31033        0.93070
N         36.15274       51.15967        0.81232
C         37.33503       51.93888        1.18393
C         36.96508       53.41415        1.35147
O         37.37893       54.23012        0.53679
C         38.57132       51.73869        0.26434
C         38.74389       50.25688       -0.14309
C         39.81355       52.27099        1.02979
C         40.00541       50.02243       -0.97527
H         35.93036       50.37343        1.43200
H         37.67260       51.52665        2.15760
H         38.44351       52.31315       -0.67902
H         37.86925       49.98240       -0.77236
H         38.76159       49.58204        0.74099
H         40.73493       52.21867        0.41990
H         39.68263       53.33441        1.31855
H         39.97629       51.68691        1.96452
H         40.90935       50.09851       -0.33472
H         39.98598       49.00477       -1.41482
H         40.07179       50.76885       -1.79554
N         36.13745       53.84707        2.34076
C         35.68349       52.99648        3.43549
C         36.84151       52.66494        4.34963
O         36.93446       51.54178        4.82766
C         34.52967       53.65789        4.21582
C         34.89774       54.84387        5.06989
O         34.55022       54.85712        6.37120
O         35.46654       55.81012        4.58919
H         35.85464       54.83779        2.33112
H         35.23802       52.07126        3.01724
H         34.07305       52.89118        4.87960
H         33.76134       53.96700        3.47799
N         37.80991       53.59768        4.57945
C         38.95690       53.34757        5.42929
C         38.51617       53.31992        6.88420
O         37.58166       54.04112        7.22800
C         40.07396       54.38568        5.13770
C         39.72085       55.81477        5.47661
C         39.32114       56.71276        4.46935
C         39.82266       56.26816        6.80142
C         39.00841       58.03699        4.79158
C         39.52476       57.59702        7.11546
C         39.11286       58.47929        6.11296
H         37.74249       54.50712        4.10046
H         39.39188       52.37117        5.12495
H         40.28930       54.31201        4.04793
H         41.02694       54.12931        5.64658
H         39.24017       56.38453        3.44002
H         40.14939       55.59547        7.58450
H         38.68850       58.72156        4.01624
H         39.61617       57.94311        8.13647
H         38.87862       59.50667        6.35964
N         39.14806       52.56164        7.82391
C         40.29389       51.71859        7.54860
C         39.83955       50.38298        6.98038
O         38.66803       50.21706        6.67557
C         40.96257       51.67205        8.92273
C         39.78623       51.63799        9.88422
C         38.79295       52.59837        9.22642
H         41.02136       52.17249        6.84796
H         41.73423       50.88826        9.06591
H         41.45709       52.66228        9.06115
H         39.37823       50.60529        9.85604
H         40.03892       51.90851       10.93321
H         37.74511       52.26762        9.41721
H         38.93875       53.63594        9.59354
N         40.74372       49.38077        6.79925
C         40.36815       48.09389        6.23653
C         41.45617       47.43044        5.36015
O         41.34774       46.22595        5.17142
C         39.93616       47.15859        7.39348
C         41.08339       46.85130        8.36785
C         40.69382       45.77933        9.34208
O         39.75123       46.01449       10.27391
O         41.23860       44.68750        9.29430
H         41.67806       49.48946        7.20520
H         39.46395       48.19116        5.59357
H         39.57040       46.20636        6.94790
H         39.07948       47.60687        7.94647
H         41.39275       47.76467        8.92126
H         41.95375       46.48637        7.78610
N         42.50535       48.06940        4.74723
C         42.74886       49.49757        4.70063
H         43.65169       49.68702        4.07943
H         41.89183       50.01671        4.22349
H         42.99334       49.92655        5.68438
H         43.16250       47.48160        4.20987
Ca        32.97824       44.95604        2.53624
O         34.96988       46.86834        4.23441
H         35.52741       47.65786        4.02152
H         35.50455       46.35583        4.89227
O         33.19265       44.81227        5.57773
H         33.96525       44.30942        5.93672
H         32.57200       44.90499        6.34272
O         32.05884       47.74423        4.19549
H         32.38386       48.20560        5.00889
H         31.31291       48.30816        3.87023

Ca 1.70



