%chk=loop2.cluster51.chk
%nprocshared=48
%mem=10GB
%nosave
#b3lyp/svp scf=(tight,noincore) Test 
#IOP(5/87=12) Density=Current Pop=(MK,readradii) iop(6/33=2) iop(6/42=6)

loop2.cluster51 

   -2  1 
C         50.93877       42.89546       16.79464
C         52.17302       42.43433       16.08105
O         53.03955       43.24278       15.77865
H         50.11993       42.15887       16.64112
H         51.13211       42.99347       17.88224
H         50.59514       43.86001       16.36868
N         52.31802       41.11679       15.78682
C         53.43901       40.58821       15.02667
C         53.36512       41.11749       13.60165
O         52.35998       40.89843       12.93930
C         53.37055       39.05008       15.10322
C         54.51846       38.34244       14.47522
O         55.77957       38.69458       14.77106
O         54.30890       37.36999       13.77549
H         51.59780       40.46073       16.12828
H         54.38903       40.89775       15.51522
H         52.41833       38.67500       14.66619
H         53.39071       38.77227       16.17822
N         54.39499       41.84721       13.07801
C         54.36523       42.44346       11.74480
C         55.37086       41.80848       10.80342
O         55.27902       42.04869        9.60663
C         54.69683       43.93241       11.85374
H         55.23076       41.99486       13.65150
H         53.35424       42.31528       11.29530
H         54.63635       44.42694       10.86063
H         54.00670       44.43793       12.55855
H         55.73729       44.04506       12.23600
N         56.35766       40.98588       11.26801
C         57.29187       40.29776       10.39116
C         57.01863       38.79314       10.40333
O         57.65468       38.07768        9.64160
C         58.75050       40.65674       10.76072
C         59.14940       40.24002       12.13609
O         59.10986       39.06620       12.44266
O         59.62248       41.14609       13.01228
H         56.43711       40.80236       12.27533
H         57.14799       40.62907        9.33908
H         58.89987       41.75461       10.67323
H         59.44251       40.15154       10.05608
N         56.03046       38.25116       11.18583
C         55.61742       36.86254       11.06984
C         56.49255       35.86200       11.79714
O         56.23996       34.67370       11.65801
H         55.46005       38.85712       11.78939
H         55.53386       36.60440        9.99427
H         54.59501       36.75673       11.48387
N         57.50708       36.25121       12.62391
C         58.36768       35.29027       13.30819
C         57.80131       34.79641       14.64513
O         58.44179       33.96999       15.28231
C         59.81554       35.82083       13.41710
C         60.04552       37.11420       14.23890
N         61.43146       37.24548       14.71599
O         59.13551       37.33117       15.27369
H         57.65829       37.24904       12.79351
H         58.46000       34.38175       12.66803
H         60.20125       36.02846       12.39340
H         60.42542       34.98763       13.82627
H         61.97635       36.35925       14.59981
H         61.44514       37.46762       15.73964
N         56.57302       35.19448       15.09398
C         55.93688       34.61823       16.27442
C         56.48199       35.10143       17.60677
O         56.10643       34.54718       18.62871
H         56.02221       35.84304       14.52606
H         55.99102       33.51037       16.19969
H         54.86155       34.89631       16.27564
N         57.34062       36.15317       17.67434
C         57.85610       36.71366       18.92164
C         57.83899       38.22226       18.85185
O         58.32090       38.79207       17.88237
C         59.29834       36.24810       19.18957
C         59.30606       34.79277       19.66698
O         60.08253       36.41085       18.03603
H         57.61898       36.60307       16.80240
H         57.24322       36.39948       19.79587
H         59.71684       36.86585       20.01989
H         61.00231       36.11930       18.26642
H         58.72142       34.71234       20.61114
H         58.86367       34.11979       18.90631
H         60.34453       34.47096       19.88547
N         57.33004       38.94054       19.88779
C         57.33754       40.39327       19.87811
C         58.76288       40.86583       20.03146
O         59.41053       40.52121       21.00851
C         56.46783       41.01585       21.00346
C         55.04397       40.40850       20.98011
C         56.41773       42.55522       20.83530
C         54.13232       40.97983       22.05742
H         56.96459       38.43789       20.70662
H         56.88424       40.73608       18.92486
H         56.92852       40.78270       21.98945
H         55.11303       39.32379       21.18529
H         54.56804       40.53748       19.98295
H         55.93213       42.83172       19.87378
H         55.86226       43.03172       21.66706
H         57.43355       42.99806       20.85428
H         53.21590       40.35861       22.12399
H         54.64859       40.96780       23.04098
H         53.83296       42.01617       21.80066
N         59.28525       41.71343       19.11605
C         60.59428       42.33355       19.27426
C         60.39090       43.80435       19.50920
O         59.27249       44.25366       19.48838
C         61.48810       41.98926       18.07789
C         60.78533       42.12613       16.75529
O         60.40673       43.21296       16.35391
O         60.52555       41.02243       16.03227
H         58.69919       42.00349       18.32164
H         61.10481       41.97514       20.19407
H         61.75548       40.91841       18.19560
H         62.43063       42.57809       18.09384
N         61.43639       44.58704       19.87058
C         61.24638       45.95108       20.35863
C         60.61060       46.88794       19.32125
O         59.68569       47.60131       19.69706
C         62.57921       46.44700       20.95668
C         62.45077       47.64329       21.85991
C         63.10499       48.83936       21.53885
C         61.72854       47.55004       23.06622
C         63.04054       49.92972       22.40984
C         61.67160       48.64166       23.93657
C         62.32845       49.83037       23.60907
H         62.37313       44.16608       19.91253
H         60.54241       45.88844       21.21871
H         63.31725       46.62126       20.15201
H         62.99222       45.64311       21.60791
H         63.67110       48.92092       20.61993
H         61.23163       46.62754       23.34311
H         63.55249       50.84830       22.15874
H         61.12793       48.56207       24.86988
H         62.29116       50.67241       24.28714
N         60.98403       46.93467       17.99802
C         60.34018       47.79321       17.00824
C         58.83120       47.54275       16.89654
O         58.06556       48.49240       16.87903
C         61.08888       47.45689       15.70792
C         62.45152       47.00995       16.22524
C         62.06338       46.15873       17.42633
H         60.54219       48.85497       17.27638
H         60.63147       46.56876       15.21908
H         61.12197       48.29327       14.97467
H         63.09152       46.49226       15.47880
H         62.99536       47.90446       16.60672
H         61.65586       45.18891       17.07966
H         62.93383       46.00086       18.08565
N         58.34605       46.26520       16.89976
C         56.91327       45.93967       16.99432
C         56.30620       46.51814       18.27529
O         55.26949       47.16312       18.20405
C         56.72639       44.40039       16.97602
C         56.78342       43.79600       15.55638
C         56.91387       42.28683       15.62011
O         57.53731       41.62334       14.62902
O         56.64538       41.68767       16.64596
H         59.02767       45.49263       16.92292
H         56.34505       46.35492       16.13424
H         55.74363       44.10560       17.40304
H         57.51508       43.94628       17.61216
H         57.66143       44.19831       15.00914
H         55.87384       44.09282       14.97964
N         56.90297       46.32738       19.48124
C         56.37278       46.83344       20.72691
H         55.37454       46.39271       20.92609
H         57.05271       46.54566       21.56119
H         56.31118       47.94054       20.69661
H         57.78072       45.82853       19.51768
Ca        58.35716       39.50382       15.00020

Ca 1.70



