%chk=loop4.cluster91.chk
%nprocshared=48
%mem=10GB
%nosave
#b3lyp/svp scf=(tight,noincore) Test 
#IOP(5/87=12) Density=Current Pop=(MK,readradii) iop(6/33=2) iop(6/42=6)

loop4.cluster91 

   -3  1 
C         79.49127       46.26857       84.48000
C         80.47000       45.12959       84.55426
O         81.35741       45.05585       83.71837
H         78.61422       46.08641       85.13617
H         79.98731       47.20923       84.79911
H         79.12005       46.39137       83.43956
N         80.36841       44.19463       85.54769
C         81.26071       43.03757       85.69260
C         82.70064       43.42868       86.00302
O         83.58361       42.59405       85.89353
C         81.15594       42.08203       84.48132
C         79.71262       41.81716       84.21273
O         79.07768       41.07226       84.94070
O         79.06022       42.68694       83.43835
H         79.61269       44.30243       86.24165
H         80.90900       42.44988       86.56882
H         81.67657       41.12272       84.68923
H         81.61689       42.53225       83.57662
N         82.98478       44.67613       86.47735
C         84.32699       45.13090       86.81776
C         84.35352       45.44276       88.30506
O         83.56611       46.27548       88.72870
C         84.61720       46.41955       85.98322
C         84.58789       46.15648       84.45538
C         85.91005       47.13752       86.40366
C         85.57519       45.10531       83.94367
H         82.21663       45.34424       86.62262
H         85.09177       44.36769       86.58983
H         83.79980       47.15048       86.18396
H         84.77206       47.11337       83.92068
H         83.57622       45.82174       84.17191
H         85.84053       47.46399       87.46386
H         86.80019       46.49072       86.28405
H         86.03631       48.06178       85.79818
H         86.62117       45.39333       84.16808
H         85.36048       44.10819       84.37853
H         85.46109       45.01231       82.84276
N         85.23425       44.87077       89.18439
C         86.22958       43.83277       88.88541
C         85.56086       42.49594       88.56260
O         85.98607       41.82415       87.63492
C         87.17061       43.67625       90.10377
C         88.04208       44.89787       90.26425
O         89.01659       45.05108       89.54351
O         87.74543       45.83074       91.18888
H         85.18577       45.21295       90.15896
H         86.87997       44.13379       88.03267
H         87.84541       42.80000       89.99369
H         86.56481       43.51694       91.02219
N         84.48142       42.07246       89.28237
C         83.70334       40.87692       88.96749
C         84.45222       39.57214       89.10103
O         85.12852       39.36008       90.09909
H         84.13693       42.66957       90.04730
H         83.27645       40.96494       87.94577
H         82.85309       40.83019       89.67685
N         84.33242       38.62476       88.12199
C         85.03736       37.34688       88.14135
C         86.18389       37.34985       87.13751
O         86.98491       36.42766       87.15723
C         84.06905       36.14221       87.93029
C         83.29663       36.09111       86.62768
O         82.51536       35.02599       86.36433
O         83.35051       37.00051       85.81951
H         83.74341       38.84625       87.30689
H         85.51845       37.20476       89.13476
H         83.31943       36.12547       88.75001
H         84.66297       35.20474       87.99675
N         86.32619       38.36698       86.23290
C         87.43467       38.45380       85.29766
C         87.05113       37.97719       83.91613
O         87.83382       38.14957       82.99152
H         85.60764       39.09728       86.15932
H         88.29927       37.84101       85.62570
H         87.76432       39.51476       85.27724
N         85.88806       37.29813       83.71412
C         85.50237       36.66876       82.46668
C         85.28269       37.68000       81.37200
O         85.80383       37.53931       80.27668
C         86.42744       35.47421       82.13555
C         86.32555       34.45211       83.29147
C         86.84380       33.07227       82.99927
N         86.75730       32.12150       83.95930
O         87.30157       32.79196       81.90143
H         85.25318       37.15511       84.50238
H         84.49050       36.22843       82.61640
H         87.48622       35.78389       81.98203
H         86.05933       35.00970       81.19703
H         85.25422       34.30413       83.54529
H         86.84445       34.85993       84.18693
H         86.36581       32.35356       84.88546
H         87.06883       31.15702       83.77660
N         84.44114       38.72134       81.61944
C         83.98975       39.63650       80.58471
C         82.99909       38.93232       79.69011
O         82.02520       38.37025       80.16688
C         83.37995       40.92309       81.21252
C         84.53550       41.82891       81.67151
C         82.49024       41.71069       80.22943
H         84.05149       38.82361       82.56843
H         84.85149       39.96590       79.96413
H         82.73054       40.65458       82.07448
H         85.18735       41.30421       82.40024
H         85.16029       42.11350       80.79225
H         84.15049       42.76136       82.13046
H         82.09453       42.62408       80.72065
H         83.05117       41.99416       79.31452
H         81.60615       41.10506       79.93237
N         83.16789       39.03429       78.34594
C         82.24643       38.48973       77.36810
C         81.55648       39.65030       76.66668
O         82.16279       40.69121       76.47339
C         83.06588       37.59229       76.42875
C         82.27656       36.93064       75.32930
N         81.17976       36.18795       75.60609
O         82.65293       37.04443       74.17243
H         83.97140       39.57095       77.99016
H         81.46742       37.87279       77.86448
H         83.51826       36.79258       77.05399
H         83.89348       38.18461       75.97802
H         80.83684       36.08800       76.57161
H         80.66659       35.71969       74.84487
N         80.22355       39.56259       76.39045
C         79.44833       40.69466       75.88522
C         77.97394       40.45702       76.15711
O         77.45616       39.38125       75.90162
C         79.75036       40.99498       74.39891
C         78.99528       42.18902       73.81879
C         79.68556       43.36189       73.45325
C         77.60688       42.12193       73.58725
C         79.00380       44.43178       72.85756
C         76.93135       43.19076       72.98994
C         77.62998       44.34436       72.61258
O         76.99326       45.36452       72.00028
H         79.73752       38.68388       76.61190
H         79.74028       41.59964       76.46412
H         79.53126       40.10596       73.77211
H         80.84021       41.19458       74.32195
H         80.75206       43.44583       73.61793
H         77.04728       41.23408       73.84175
H         79.54678       45.32373       72.56875
H         75.86684       43.11455       72.80504
H         76.05483       45.31238       71.76643
N         77.23921       41.48741       76.65117
C         75.81899       41.41674       76.94414
C         75.14631       42.78049       76.72680
O         74.23896       42.81765       75.90639
C         75.55465       40.70134       78.29106
C         74.09903       40.89577       78.75056
C         73.64612       39.86683       79.74127
O         73.02721       40.24567       80.86891
O         73.72244       38.68003       79.46865
H         77.70812       42.38690       76.73751
H         75.33002       40.77016       76.17558
H         76.24369       41.01954       79.10020
H         75.75326       39.62070       78.10080
H         73.42106       40.79630       77.88195
H         73.98622       41.92206       79.17165
N         75.50708       43.95726       77.32846
C         76.58873       44.15972       78.28821
C         77.83470       44.68868       77.61583
O         77.82004       44.99365       76.42903
C         76.17499       45.27817       79.28626
C         75.09171       44.86955       80.27874
C         75.68170       44.02918       81.36105
O         75.63601       44.43763       82.63857
O         76.26958       42.99450       81.09021
H         75.00152       44.80133       77.01471
H         76.87012       43.20722       78.77409
H         75.81155       46.14032       78.68253
H         77.03945       45.66394       79.87377
H         74.26768       44.33881       79.76451
H         74.68977       45.78924       80.75528
N         78.97315       44.81339       78.35435
C         80.17969       45.43120       77.85912
H         80.98427       44.67257       77.78039
H         80.02413       45.92568       76.87826
H         80.49140       46.21091       78.58679
H         78.97832       44.46615       79.32719
Ca        76.93581       43.15343       83.86811
O         76.80438       40.04328       82.68279
H         76.01500       39.58999       82.29288
H         77.58124       39.59386       82.26497
O         75.62267       40.71163       85.89775
H         76.28844       40.06947       86.25057
H         75.17610       41.07599       86.70293
O         74.35012       41.76719       83.32440
H         73.84168       42.20494       84.04939
H         73.65887       41.27118       82.83087

Ca 1.70



