%chk=loop2.cluster115.chk
%nprocshared=48
%mem=10GB
%nosave
#b3lyp/svp scf=(tight,noincore) Test 
#IOP(5/87=12) Density=Current Pop=(MK,readradii) iop(6/33=2) iop(6/42=6)

loop2.cluster115 

   -2  1 
C         85.74968       78.84107       26.04024
C         87.23210       79.01938       25.98200
O         87.68543       80.08181       25.58120
H         85.23030       79.78201       25.75673
H         85.45849       78.03614       25.33679
H         85.44680       78.56594       27.07274
N         88.05494       77.99519       26.35852
C         89.51342       78.08983       26.35734
C         89.97961       78.70136       27.68536
O         90.74118       78.08372       28.41909
C         90.09178       76.66902       26.12104
C         91.54699       76.61956       25.73559
O         92.19366       77.64282       25.57658
O         92.12781       75.42500       25.51181
H         87.62047       77.09788       26.62363
H         89.82516       78.72293       25.49563
H         89.53869       76.19300       25.28355
H         89.92347       76.05121       27.03122
N         89.52141       79.93002       28.05215
C         89.79318       80.59158       29.31642
C         88.45070       81.00942       29.94572
O         87.48786       81.16565       29.20526
C         90.65171       81.80571       28.97623
H         88.94355       80.45061       27.39429
H         90.35499       79.91593       29.99773
H         91.60075       81.44955       28.51778
H         90.12817       82.44267       28.22852
H         90.89739       82.40569       29.86773
N         88.25552       81.17976       31.28833
C         89.30107       81.14656       32.30577
C         89.14551       79.95665       33.20524
O         88.22163       79.17393       33.01913
C         89.21614       82.41291       33.16391
C         89.03152       83.61480       32.31513
O         89.90680       83.96788       31.54330
O         87.85168       84.26216       32.35140
H         87.30080       81.39966       31.60274
H         90.29675       81.08312       31.83562
H         90.10844       82.52922       33.81478
H         88.32054       82.33794       33.81225
N         90.06965       79.72557       34.18766
C         90.05182       78.50967       34.97553
C         90.15732       77.32871       34.03108
O         90.54356       77.52461       32.88530
H         90.84040       80.39274       34.32895
H         89.11896       78.49129       35.56390
H         90.89922       78.49710       35.69568
N         89.80927       76.06603       34.38078
C         89.35275       75.65926       35.70598
C         87.96601       76.21524       36.05911
O         87.54514       76.07830       37.20041
C         89.27976       74.11186       35.77222
C         90.58147       73.41246       35.40369
N         91.24809       72.67182       36.31358
O         91.02401       73.49053       34.26713
H         89.88682       75.35802       33.64152
H         90.10124       76.01226       36.45127
H         88.48994       73.75255       35.07448
H         88.97976       73.82162       36.80136
H         90.89960       72.58015       37.27657
H         92.12153       72.19381       36.04475
N         87.17795       76.79819       35.10947
C         85.83129       77.28047       35.36152
C         85.80136       78.49234       36.25852
O         85.03276       78.51658       37.20929
H         87.51828       76.86114       34.14126
H         85.18752       76.46497       35.75845
H         85.40362       77.59262       34.38540
N         86.56013       79.58027       35.94863
C         86.49297       80.84254       36.66731
C         85.78171       81.79842       35.73835
O         86.35663       82.77748       35.29224
C         87.92057       81.30716       37.05763
C         87.87973       82.51739       37.99727
O         88.59577       80.26040       37.70642
H         87.15634       79.53864       35.11759
H         85.88244       80.74368       37.59061
H         88.46693       81.57857       36.12093
H         89.54631       80.30569       37.41767
H         88.91324       82.84036       38.24271
H         87.34531       83.37523       37.54096
H         87.36351       82.23920       38.94136
N         84.51938       81.49515       35.33377
C         83.85961       82.19777       34.24255
C         83.11258       83.42553       34.72409
O         82.91596       83.59182       35.92015
C         82.92442       81.22454       33.45127
C         83.65509       79.95544       32.93497
C         81.71252       80.78271       34.30360
C         84.95612       80.24181       32.19424
H         84.10568       80.62656       35.69259
H         84.64170       82.56066       33.54005
H         82.53721       81.76591       32.56018
H         82.96975       79.41275       32.24724
H         83.89736       79.27643       33.77732
H         82.02437       80.29460       35.25033
H         81.07848       81.65373       34.56540
H         81.08641       80.05166       33.75240
H         85.69384       80.65994       32.90852
H         85.38500       79.29737       31.79845
H         84.79250       80.94732       31.35323
N         82.63911       84.31914       33.81063
C         81.86263       85.50416       34.14972
C         80.41691       85.33043       33.70468
O         80.03171       84.23334       33.33100
C         82.54823       86.77785       33.58157
C         82.48393       86.91532       32.08020
O         83.59475       86.89886       31.31368
O         81.40464       87.09265       31.54252
H         82.83572       84.14273       32.82339
H         81.82227       85.63261       35.25244
H         83.59386       86.80626       33.92271
H         82.07251       87.68147       34.01831
N         79.54801       86.37720       33.76809
C         78.11130       86.29671       33.54057
C         77.73225       85.74124       32.15944
O         77.50451       84.54835       32.05479
C         77.43874       85.58272       34.73054
C         75.96009       85.87796       34.78821
C         75.04755       85.13812       34.02171
C         75.48697       86.91934       35.60932
C         73.68235       85.43212       34.07906
C         74.12282       87.21490       35.65605
C         73.22055       86.47028       34.89330
H         79.91365       87.29386       34.05799
H         77.73701       87.33310       33.62338
H         77.89792       86.02878       35.64172
H         77.65042       84.49296       34.78701
H         75.38893       84.33038       33.39078
H         76.17677       87.51040       36.20071
H         72.98233       84.85430       33.49107
H         73.76605       88.02255       36.28263
H         72.16372       86.69786       34.93295
N         77.64562       86.55184       31.04856
C         77.30661       86.04023       29.71791
C         78.23481       84.93806       29.20696
O         77.93791       84.33230       28.18254
C         77.49434       87.27727       28.81954
C         77.22937       88.44244       29.75234
C         77.83562       87.98149       31.07599
H         76.25223       85.68925       29.76729
H         78.57028       87.36415       28.54570
H         76.89201       87.27258       27.88433
H         77.60071       89.43035       29.40073
H         76.12676       88.50132       29.88318
H         78.92245       88.18926       31.16984
H         77.26250       88.49457       31.87801
N         79.42687       84.69513       29.81856
C         80.40087       83.70856       29.37209
C         79.92935       82.30392       29.71590
O         79.98569       81.42807       28.86668
C         81.76211       84.07854       29.99994
C         82.94523       83.20698       29.56319
C         84.25066       83.83551       29.97838
O         84.63214       83.83142       31.26634
O         84.97315       84.35203       29.14072
H         79.69253       85.29108       30.61602
H         80.55500       83.79611       28.27256
H         81.67237       84.09594       31.09498
H         81.97736       85.11610       29.65137
H         82.93535       83.14333       28.45595
H         82.87050       82.17940       29.97948
N         79.42500       82.03091       30.95144
C         78.90290       80.72999       31.31025
H         77.99781       80.50537       30.70574
H         79.67139       79.94632       31.15223
H         78.61043       80.73043       32.38339
H         79.37463       82.77612       31.64834
Ca        85.69234       86.38525       31.95654
O         85.66933       85.43957       34.45943
H         85.25043       86.03950       35.12239
H         86.49423       85.13210       34.90260
O         88.45508       86.94881       32.74170
H         89.23416       86.35755       32.59598
H         88.71589       87.50629       33.51473
O         88.08859       85.62958       29.32899
H         88.33579       85.26989       30.21050
H         88.95436       85.88894       28.92888
O         86.44301       88.06135       29.91135
H         86.71763       87.73904       29.01794
H         86.16468       88.99882       29.76796

Ca 1.70



