%chk=loop2.cluster221.chk
%nprocshared=48
%mem=10GB
%nosave
#b3lyp/svp scf=(tight,noincore) Test 
#IOP(5/87=12) Density=Current Pop=(MK,readradii) iop(6/33=2) iop(6/42=6)

loop2.cluster221 

   -2  1 
C          7.80144       70.51895       11.94500
C          7.02005       70.83887       10.70929
O          7.45923       71.65213        9.90819
H          8.73033       71.12456       11.99640
H          7.18326       70.70466       12.84633
H          8.08406       69.44373       11.91247
N          5.85463       70.18086       10.46614
C          5.14487       70.29833        9.20068
C          4.63426       71.72098        8.96886
O          3.91340       72.25457        9.80036
C          4.04443       69.21584        9.11002
C          3.75141       68.80311        7.69268
O          3.28218       69.58599        6.89446
O          4.03895       67.55098        7.29304
H          5.52476       69.49795       11.16634
H          5.88551       70.03158        8.42879
H          3.12910       69.51555        9.66280
H          4.43790       68.28827        9.57875
N          4.99982       72.38804        7.83843
C          4.63423       73.76179        7.51604
C          3.34983       73.83577        6.69975
O          2.89773       74.93291        6.40137
C          5.79958       74.37867        6.72566
H          5.53216       71.87586        7.13832
H          4.48371       74.34436        8.45096
H          5.60710       75.43903        6.46574
H          6.73441       74.31825        7.32439
H          5.96312       73.80695        5.78289
N          2.72434       72.69962        6.28259
C          1.47971       72.67840        5.52837
C          0.46224       71.66644        6.11385
O         -0.62119       71.53451        5.56232
C          1.83483       72.46263        4.04115
C          2.53652       71.17229        3.74962
O          3.66915       71.17197        3.29610
O          1.90139       70.01359        3.93840
H          3.18927       71.80812        6.44053
H          0.99187       73.67666        5.56528
H          2.51173       73.29488        3.73969
H          0.92238       72.52560        3.41460
N          0.73112       70.96581        7.26456
C         -0.19958       70.06949        7.94841
C         -0.48753       68.72370        7.30483
O         -1.10650       67.90044        7.96636
H          1.61267       71.14075        7.75911
H         -1.15259       70.59318        8.17262
H          0.27112       69.81328        8.92433
N         -0.08705       68.40619        6.04119
C         -0.39699       67.10912        5.43928
C          0.34955       65.93367        6.07833
O          0.11452       64.80657        5.66265
C         -0.20990       67.14180        3.90284
C          1.19501       67.27013        3.38716
N          1.41487       67.28208        2.05534
O          2.13473       67.37078        4.15399
H          0.37093       69.11924        5.47213
H         -1.48657       66.92975        5.57912
H         -0.79931       67.99248        3.49644
H         -0.62627       66.20330        3.47917
H          0.62953       67.20750        1.39425
H          2.36751       67.36798        1.68705
N          1.23235       66.10103        7.11223
C          1.86701       64.96708        7.76766
C          2.92752       64.29154        6.92946
O          3.37982       63.22192        7.31063
H          1.42162       67.03765        7.48998
H          1.07838       64.24273        8.06259
H          2.37963       65.30517        8.69411
N          3.41476       64.88323        5.80396
C          4.51321       64.34130        5.02758
C          5.60314       65.43123        4.95173
O          5.25373       66.34685        3.94714
C          3.97304       63.88055        3.64385
C          5.04770       63.43671        2.64043
O          3.04878       62.83950        3.83033
H          3.03507       65.78425        5.51313
H          4.94159       63.45900        5.54629
H          3.43268       64.73192        3.17261
H          3.53805       62.08626        4.25805
H          5.74380       64.26742        2.40184
H          5.62536       62.57394        3.03061
H          4.55528       63.13846        1.68975
N          6.93688       64.86051        4.68490
C          8.00496       65.76710        5.14563
C          8.59875       66.37633        3.89608
O          9.12099       65.64079        3.07038
C          9.15459       65.08574        5.99022
C          8.63791       64.21399        7.17339
C         10.11411       66.17946        6.51771
C          9.75282       63.67989        8.08230
H          7.02412       63.92075        5.11401
H          7.57876       66.54606        5.81164
H          9.74074       64.41270        5.32630
H          8.13401       63.31757        6.76450
H          7.91206       64.77359        7.80160
H         11.01244       65.74064        6.99782
H         10.49995       66.79611        5.69181
H          9.60073       66.83686        7.25262
H         10.16998       64.49717        8.70860
H          9.34411       62.91041        8.77005
H         10.56799       63.22263        7.48162
N          8.59453       67.72301        3.71527
C          9.33387       68.36034        2.63196
C         10.66258       68.77688        3.20129
O         10.80003       68.78180        4.39918
C          8.59027       69.61329        2.15570
C          7.18946       69.33122        1.73735
O          6.17323       69.79690        2.48510
O          6.96114       68.70322        0.71751
H          8.22406       68.31696        4.46236
H          9.50883       67.63823        1.80444
H          9.13002       70.11642        1.32462
H          8.53286       70.31031        3.01964
N         11.70830       69.09510        2.40423
C         13.02473       69.39030        2.97256
C         13.06062       70.64850        3.84985
O         13.80994       70.62621        4.82235
C         14.07184       69.35493        1.85397
C         15.50737       69.43827        2.30636
C         16.12731       70.68857        2.43914
C         16.26017       68.26683        2.51805
C         17.48466       70.76918        2.76400
C         17.61606       68.35303        2.85023
C         18.22935       69.60322        2.96535
H         11.59199       69.03522        1.38377
H         13.28747       68.53539        3.64091
H         13.86754       70.12914        1.08743
H         13.94483       68.37172        1.34633
H         15.56298       71.59605        2.26642
H         15.80110       67.29059        2.41571
H         17.96228       71.73620        2.84555
H         18.19496       67.45066        3.00422
H         19.28295       69.66863        3.20442
N         12.28604       71.76850        3.64603
C         12.26725       72.88987        4.57519
C         11.81194       72.44314        5.96364
O         12.35506       72.88699        6.96068
C         11.25221       73.86381        3.95119
C         11.28569       73.49076        2.47549
C         11.40274       71.97250        2.51836
H         13.27657       73.35546        4.59955
H         10.22462       73.63644        4.31233
H         11.47459       74.93500        4.15750
H         10.42875       73.87635        1.87940
H         12.23147       73.88302        2.04376
H         10.41502       71.54082        2.76412
H         11.79659       71.59731        1.55282
N         10.82705       71.50661        6.06592
C         10.38488       70.91968        7.32923
C         11.53004       70.11272        7.94269
O         11.85099       70.30798        9.10643
C          9.14369       70.03775        7.07730
C          7.99010       70.83304        6.41034
C          6.84552       69.92410        6.07053
O          5.81765       70.33090        5.31237
O          6.87073       68.75818        6.42256
H         10.40968       71.15741        5.19515
H         10.05234       71.71502        8.03028
H          8.77711       69.61199        8.03926
H          9.41771       69.18979        6.41818
H          8.31556       71.28275        5.45271
H          7.67546       71.66206        7.07318
N         12.23313       69.22932        7.17852
C         13.39276       68.50305        7.63943
H         14.18366       69.21710        7.94885
H         13.12608       67.82155        8.47076
H         13.79861       67.89324        6.79851
H         11.97616       69.10599        6.20661
Ca         4.77408       68.47922        4.61654
O          4.76808       67.02529        1.48725
H          4.43597       67.08726        0.55974
H          4.70075       67.94922        1.83440

Ca 1.70



