%chk=loop3.cluster206.chk
%nprocshared=48
%mem=10GB
%nosave
#b3lyp/svp scf=(tight,noincore) Test 
#IOP(5/87=12) Density=Current Pop=(MK,readradii) iop(6/33=2) iop(6/42=6)

loop3.cluster206 

   0  1 
C        114.97140       77.51081       43.14472
C        115.88845       76.39336       43.54667
O        116.20464       76.26700       44.72101
H        114.00884       77.43514       43.69022
H        115.45884       78.47985       43.37784
H        114.76040       77.48321       42.05384
N        116.37136       75.54327       42.60102
C        117.31249       74.46966       42.89712
C        118.60663       75.08172       43.44015
O        119.18926       75.93195       42.78667
C        117.51609       73.64775       41.60512
C        118.32312       72.39600       41.75492
O        118.10998       71.44963       41.01710
O        119.35347       72.34428       42.60465
H        116.06597       75.67711       41.62433
H        116.85693       73.78826       43.65126
H        117.94609       74.27316       40.79577
H        116.50570       73.32055       41.26846
N        119.05956       74.72576       44.67843
C        120.18460       75.39790       45.35686
C        121.53946       75.26488       44.66122
O        122.49351       75.91760       45.07530
C        120.20643       74.93954       46.83758
C        120.52532       73.44704       47.10401
C        122.03239       73.15873       47.19203
C        122.34533       71.74609       47.72614
N        121.97882       70.68410       46.79147
H        118.52255       74.01783       45.19660
H        119.94031       76.48182       45.36703
H        119.17144       75.11863       47.20643
H        120.86901       75.58172       47.45631
H        120.01655       72.78485       46.37342
H        120.10995       73.21248       48.10814
H        122.45858       73.87099       47.93201
H        122.53874       73.32382       46.22207
H        121.82599       71.58681       48.69716
H        123.43974       71.68309       47.91265
H        120.95511       70.69595       46.58162
H        122.54431       70.78518       45.92291
H        122.22370       69.75924       47.21121
N        121.70104       74.42341       43.61123
C        122.93117       74.22527       42.85450
C        122.68398       74.24867       41.33052
O        123.65022       74.21289       40.58624
C        123.58550       72.87917       43.25599
C        122.58354       71.77201       43.22746
O        122.63795       70.85705       42.27407
O        121.64471       71.75861       44.00412
H        120.90374       73.83945       43.37288
H        123.66547       75.03007       43.08386
H        124.00215       72.92140       44.28140
H        124.42443       72.65672       42.55779
N        121.42062       74.31150       40.79677
C        121.17560       74.36908       39.36620
C        121.40507       73.07622       38.61154
O        121.27172       73.11258       37.39513
H        120.59916       74.37289       41.39757
H        121.76583       75.20090       38.92710
H        120.09996       74.60456       39.20170
N        121.65957       71.88155       39.23805
C        121.74040       70.62435       38.49075
C        120.48067       69.75036       38.81240
O        120.62328       68.89545       39.91247
C        123.11072       69.94083       38.71080
C        123.42062       68.88610       37.67598
N        123.98179       69.22815       36.49192
O        123.22366       67.71221       37.92710
H        121.73107       71.85587       40.26120
H        121.69101       70.86505       37.41019
H        123.20730       69.53326       39.74098
H        123.90969       70.70709       38.61357
H        124.21380       70.21009       36.28409
H        124.20782       68.50318       35.79388
N        120.05209       68.94368       37.67021
C        118.78881       68.23641       37.96912
C        119.04055       66.80052       38.39348
O        118.08901       66.06056       38.59465
H        119.95561       69.53484       36.81678
H        118.18681       68.19090       37.03841
H        118.18069       68.77489       38.73427
N        120.31354       66.32458       38.46371
C        120.65935       64.92717       38.63425
C        120.56604       64.54114       40.09565
O        121.23148       65.14257       40.92337
C        122.08126       64.73892       38.07525
C        122.49604       63.31592       37.87612
C        123.30688       62.68062       38.82268
C        122.13283       62.63812       36.69987
C        123.74847       61.37501       38.60129
C        122.58215       61.33596       36.47542
C        123.39215       60.69952       37.42785
O        123.83630       59.44414       37.22142
H        121.07614       66.96513       38.25240
H        119.97811       64.31813       37.99959
H        122.81926       65.28098       38.70402
H        122.12981       65.21969       37.07044
H        123.59787       63.20094       39.72674
H        121.52211       63.12801       35.94944
H        124.37652       60.89233       39.33761
H        122.30999       60.82706       35.55890
H        123.60643       58.95002       36.42178
N        119.71835       63.55345       40.47715
C        119.44227       63.17905       41.85875
C        120.63695       62.55346       42.57501
O        121.72642       63.10841       42.60719
C        118.73092       64.29216       42.69846
C        118.07817       63.66479       43.96782
C        117.61885       64.93094       41.83855
C        117.56985       64.69507       44.98199
H        119.18351       63.06467       39.74442
H        118.66786       62.38515       41.77547
H        119.46069       65.07434       43.00564
H        118.79720       63.03540       44.52615
H        117.23773       63.00917       43.64439
H        116.97745       64.13906       41.39098
H        116.96015       65.61400       42.40275
H        118.06966       65.52852       41.02722
H        116.91266       65.46424       44.53902
H        116.97991       64.18223       45.76505
H        118.43148       65.19444       45.47140
N        120.41692       61.41455       43.27641
C        121.37961       60.75915       44.15323
C        121.27174       59.22955       44.05007
O        122.27979       58.55258       44.18782
C        121.09972       61.23228       45.58360
O        119.76695       60.96959       45.92178
H        119.44075       61.11569       43.32244
H        122.42475       61.06637       43.91623
H        121.27731       62.33284       45.61957
H        121.78755       60.73244       46.29946
H        119.59007       61.45973       46.76513
N        120.06305       58.62567       43.82256
C        119.83609       57.19863       43.65395
C        120.20529       56.34847       44.87430
O        120.95277       55.39379       44.70812
C        120.51912       56.71998       42.36369
H        119.21960       59.19708       43.73430
H        118.74183       57.06306       43.49256
H        120.20547       55.68072       42.13059
H        120.22217       57.37152       41.51326
H        121.62430       56.75010       42.46170
N        119.71843       56.57317       46.13653
C        118.91161       57.72204       46.53738
C        117.60331       57.30764       47.16752
O        117.50843       56.18064       47.62975
C        119.72003       58.49373       47.57841
H        119.99717       55.91219       46.87865
H        118.68445       58.34760       45.67708
H        119.20027       59.41944       47.89014
H        119.87336       57.86230       48.48128
H        120.71965       58.74070       47.16415
N        116.52615       58.14466       47.26065
C        116.40785       59.49525       46.70707
C        115.37221       59.45797       45.60018
O        115.68050       59.85354       44.48391
C        116.02464       60.47447       47.84136
C        115.48612       61.82607       47.34269
C        115.22488       62.75457       48.49416
O        114.09900       63.18127       48.69800
O        116.23514       63.12476       49.30369
H        115.69043       57.76566       47.73165
H        117.34382       59.87978       46.25293
H        116.93413       60.63255       48.46414
H        115.23652       60.02649       48.48193
H        114.53144       61.66324       46.79203
H        116.21232       62.29184       46.65262
N        114.11858       58.98307       45.84440
C        113.09494       58.90179       44.82481
H        112.22170       59.50541       45.14501
H        113.44041       59.27194       43.83685
H        112.78187       57.84274       44.71114
H        113.87762       58.65296       46.78858
Ca       120.67429       69.96987       41.83400
O        121.68738       67.55468       42.55740
H        122.08115       66.81549       43.08138
H        121.94807       67.37776       41.61956
O        119.78714       68.11614       44.68172
H        120.39143       67.42471       45.05228
H        119.04169       68.16642       45.33048
O        117.91945       70.77159       44.65092
H        118.21203       71.38585       45.36966
H        117.21047       70.22062       45.06742
O        117.54146       68.72510       42.02670
H        117.08425       67.98650       41.55367
H        116.89867       69.47592       41.97735

Ca 1.70



