%chk=loop4.cluster43.chk
%nprocshared=48
%mem=10GB
%nosave
#b3lyp/svp scf=(tight,noincore) Test 
#IOP(5/87=12) Density=Current Pop=(MK,readradii) iop(6/33=2) iop(6/42=6)

loop4.cluster43 

   -3  1 
C         98.06805       81.03385       36.79157
C         99.29039       80.31458       37.26836
O         99.33927       79.12810       37.09963
H         97.18892       80.66635       37.36076
H         98.16902       82.12857       36.91074
H         97.90230       80.80816       35.71243
N        100.32892       80.96646       37.85922
C        101.60551       80.36256       38.28674
C        102.52299       79.84463       37.18963
O        103.68468       79.61240       37.49586
C        101.52788       79.31909       39.44765
C        100.70102       78.04584       39.29675
O         99.86250       77.80665       40.14617
O        100.94432       77.11368       38.33807
H        100.21509       81.97788       38.01872
H        102.18408       81.21623       38.70863
H        101.14340       79.86296       40.33517
H        102.56898       79.01322       39.69919
N        102.09856       79.59972       35.91819
C        102.97018       78.94466       34.95184
C        102.85144       77.43927       35.02232
O        101.90466       76.90532       35.55479
C        102.81631       79.47026       33.50159
C        103.60095       80.78760       33.33618
C        101.33834       79.59814       33.06780
C        103.96255       81.06640       31.88119
H        101.11957       79.73238       35.67580
H        104.02810       79.09576       35.25971
H        103.31496       78.72018       32.84814
H        104.58240       80.68578       33.84651
H        103.05842       81.63820       33.80172
H        100.81912       80.39902       33.63897
H        101.24805       79.86605       31.99815
H        100.80044       78.64226       33.24383
H        104.63063       81.95062       31.83453
H        104.52572       80.19868       31.46559
H        103.06167       81.25618       31.27036
N        103.88487       76.69898       34.55438
C        103.96726       75.24692       34.65790
C        103.91451       74.75706       36.10399
O        104.43636       75.43536       36.97777
C        105.27988       74.74491       34.00098
C        106.54857       75.41272       34.50126
O        106.84104       76.54230       34.13749
O        107.41218       74.73001       35.27315
H        104.65862       77.21260       34.12582
H        103.11515       74.81251       34.10203
H        105.22449       74.90021       32.90366
H        105.36157       73.65327       34.17821
N        103.40246       73.53109       36.43976
C        102.78898       72.59666       35.50454
C        101.38875       73.01892       35.10543
O        100.66517       73.50673       35.96194
H        103.48653       73.22052       37.42137
H        102.64494       71.63505       36.03923
H        103.47195       72.37709       34.66275
N        100.88891       72.85227       33.84514
C        101.65600       72.29800       32.73167
C        100.86955       72.47357       31.45061
O         99.71341       72.07984       31.41504
C        101.95320       70.78111       32.85166
C        103.11652       70.44790       31.95012
O        104.33537       70.95593       32.22472
O        102.96214       69.74890       30.96165
H         99.92726       73.18497       33.66936
H        102.60648       72.85592       32.69381
H        101.05178       70.18615       32.56862
H        102.24066       70.46919       33.87133
N        101.40715       73.01406       30.33320
C        102.79129       73.45380       30.20893
C        103.05847       74.12786       28.88686
O        104.20137       74.15627       28.45717
H        100.78409       73.03234       29.51697
H        103.44801       72.56041       30.28768
H        103.08189       74.17618       31.00175
N        102.03766       74.71180       28.18737
C        102.21821       75.36315       26.92043
C        101.59284       76.73713       27.01347
O        100.71491       77.06494       26.23716
C        101.56869       74.53238       25.79829
C        102.25497       73.17696       25.56315
C        101.72616       72.49970       24.31572
N        102.27103       71.33764       23.89192
O        100.82121       73.00926       23.66894
H        101.08638       74.73887       28.56705
H        103.29347       75.49147       26.67067
H        101.66851       75.12271       24.86222
H        100.49178       74.36326       26.01333
H        102.11420       72.51055       26.44356
H        103.34368       73.34700       25.42078
H        103.04298       70.89840       24.41311
H        101.92759       70.88978       23.02883
N        102.05191       77.61253       27.94684
C        101.65005       79.01017       27.89640
C        100.27568       79.21192       28.50846
O        100.08053       78.97563       29.69072
C        102.71857       79.91950       28.53340
C        102.33915       81.39639       28.31436
C        104.10409       79.67792       27.90062
H        102.79996       77.31509       28.58449
H        101.63242       79.30698       26.82484
H        102.78277       79.68246       29.61510
H        102.20977       81.59520       27.22537
H        101.38628       81.64831       28.82379
H        103.13431       82.06792       28.69572
H        104.87071       80.24665       28.46466
H        104.41171       78.61364       27.93183
H        104.11507       79.99971       26.83737
N         99.27424       79.66546       27.70948
C         97.91268       79.92603       28.15871
C         97.02346       78.70508       27.89381
O         95.96021       78.60642       28.49445
C         97.43876       81.17293       27.38204
C         95.98277       81.49072       27.53320
N         95.12436       81.17691       26.53330
O         95.57243       82.02567       28.55102
H         99.48222       79.79611       26.70999
H         97.89842       80.11900       29.25684
H         97.61641       80.96527       26.30458
H         98.06006       82.06382       27.63002
H         95.46305       80.69017       25.68818
H         94.12102       81.38744       26.61550
N         97.42009       77.71445       27.04064
C         96.69319       76.46068       26.83778
C         96.55491       75.67494       28.12496
O         97.53386       75.50442       28.83952
C         97.46294       75.55331       25.86222
C         97.23430       75.87229       24.41299
C         98.27388       76.35729       23.60888
C         95.98085       75.59878       23.83742
C         98.06884       76.54643       22.23919
C         95.78138       75.77767       22.46754
C         96.82605       76.24078       21.66200
O         96.63371       76.37348       20.33458
H         98.29542       77.84375       26.51702
H         95.67546       76.65848       26.43352
H         97.13417       74.49606       25.97189
H         98.53704       75.57462       26.13634
H         99.24291       76.57331       24.03775
H         95.17244       75.20893       24.44552
H         98.88061       76.91083       21.62378
H         94.82162       75.53355       22.02856
H         97.35108       76.64151       19.74302
N         95.35631       75.07859       28.40852
C         95.04688       74.27583       29.59151
C         94.81761       75.09452       30.85014
O         93.97721       74.70586       31.65056
C         95.98562       73.08018       29.85223
C         95.96630       72.05617       28.71026
C         96.66373       70.79469       29.13508
O         96.18571       70.08149       30.17489
O         97.64960       70.40094       28.53448
H         94.60547       75.16344       27.70632
H         94.04648       73.82608       29.39448
H         95.60886       72.57365       30.76824
H         97.02764       73.40633       30.05925
H         96.44376       72.49198       27.80564
H         94.91765       71.78442       28.46041
N         95.52917       76.22046       31.11555
C         95.31357       77.01436       32.31624
C         93.97142       77.72638       32.25871
O         93.42414       78.03979       33.30676
C         96.43318       78.05818       32.45638
C         97.83717       77.42616       32.56537
C         98.19794       76.63292       33.80646
O         99.19097       75.92690       33.73716
O         97.84536       77.07708       35.02732
H         96.24151       76.53302       30.45560
H         95.35702       76.35521       33.21109
H         96.25231       78.73703       33.31666
H         96.41904       78.68358       31.53133
H         98.57002       78.25439       32.48465
H         98.02715       76.76889       31.69398
N         93.39819       78.05429       31.06299
C         92.14747       78.77784       30.99063
H         91.34775       78.21488       31.51600
H         92.26488       79.78111       31.45325
H         91.84947       78.91282       29.92852
H         93.86219       77.79947       30.17855
Ca        99.56437       76.80291       36.49955
O         97.29952       76.91292       38.58850
H         96.95051       76.18674       39.16168
H         97.77126       77.50482       39.21990
O         99.76958       74.41633       38.62928
H        100.73529       74.20365       38.68063
H         99.33994       73.55740       38.39023
O         97.38041       74.32092       36.61744
H         96.48650       74.31306       36.19277
H         97.75459       73.42441       36.42607

Ca 1.70



