%chk=loop1.cluster128.chk
%nprocshared=48
%mem=10GB
%nosave
#b3lyp/svp scf=(tight,noincore) Test 
#IOP(5/87=12) Density=Current Pop=(MK,readradii) iop(6/33=2) iop(6/42=6)

loop1.cluster128 

   0  1 
C         84.56403       62.85567       39.89111
C         85.00493       63.26932       38.51709
O         84.42457       64.17968       37.94416
H         83.51170       62.50871       39.86954
H         85.19850       62.03177       40.28556
H         84.66174       63.72053       40.57945
N         86.06254       62.64642       37.93683
C         86.61909       63.03747       36.64970
C         85.62820       62.89711       35.50926
O         84.97594       61.86819       35.38052
C         87.89799       62.22987       36.40837
C         88.53363       62.51511       35.09252
O         88.87804       61.48181       34.30500
O         88.78477       63.66211       34.75199
H         86.52493       61.88521       38.45931
H         86.93533       64.10346       36.70821
H         87.70034       61.13866       36.46894
H         88.61295       62.50176       37.21185
N         85.52486       63.90969       34.59911
C         84.58483       63.92608       33.48936
C         85.27516       63.77940       32.14026
O         84.59271       63.50383       31.16736
C         83.87513       65.30213       33.53234
C         82.75720       65.50329       32.49454
C         82.04753       66.85991       32.67112
C         82.86647       68.10012       32.24849
N         83.02821       68.21183       30.78883
H         86.15053       64.72410       34.70809
H         83.85329       63.09303       33.59658
H         84.64752       66.09182       33.39724
H         83.43690       65.42590       34.54642
H         82.01136       64.70000       32.67097
H         83.12965       65.41732       31.45410
H         81.76539       66.95920       33.74127
H         81.10956       66.85972       32.07712
H         83.85314       68.13391       32.76054
H         82.30547       68.99349       32.60050
H         82.61201       69.11051       30.45349
H         84.03693       68.26441       30.54316
H         82.57365       67.42853       30.26563
N         86.60636       64.05445       31.99217
C         87.21947       64.20674       30.67199
C         88.32347       63.20411       30.40938
O         88.81457       63.15458       29.28795
C         87.74269       65.65181       30.57107
C         86.64453       66.61096       30.91845
O         86.75718       67.41776       31.99318
O         85.61930       66.61078       30.26254
H         87.17778       64.28990       32.80978
H         86.46021       64.04931       29.87615
H         88.10637       65.87088       29.54640
H         88.58017       65.79913       31.28851
N         88.77509       62.37480       31.38742
C         89.78597       61.35404       31.18097
C         91.13640       61.71079       31.78048
O         92.04840       60.90820       31.66899
H         88.38857       62.47732       32.32619
H         89.94475       61.17754       30.09779
H         89.41457       60.39920       31.61024
N         91.35351       62.91467       32.38860
C         92.68579       63.36623       32.80238
C         92.73549       63.57710       34.30103
O         93.61792       64.27741       34.78486
C         92.98500       64.69786       32.08171
C         92.75243       64.57436       30.60925
O         91.52238       64.80107       30.11725
O         93.61326       64.10144       29.88616
H         90.57048       63.56941       32.51996
H         93.48081       62.64256       32.51849
H         94.03247       65.02079       32.27061
H         92.31012       65.49308       32.46850
N         91.82287       62.97683       35.10754
C         91.69763       63.26104       36.51641
C         92.14491       62.10303       37.35203
O         91.81081       60.96177       37.05519
H         91.16883       62.29492       34.70506
H         90.63441       63.47701       36.72980
H         92.25745       64.17456       36.80881
N         92.87448       62.35306       38.47048
C         93.32791       61.33029       39.39036
C         94.83840       61.40005       39.53529
O         95.39346       62.45216       39.82165
C         92.61714       61.44881       40.75708
C         92.75202       62.82684       41.41663
O         91.25559       61.15298       40.58066
H         93.09007       63.33383       38.70205
H         93.05386       60.31633       39.01590
H         93.07113       60.67460       41.42157
H         90.87125       61.01188       41.48546
H         93.81259       63.09970       41.57531
H         92.25452       63.60354       40.79969
H         92.25300       62.80915       42.40680
N         95.55773       60.27268       39.33929
C         97.00552       60.16230       39.52561
C         97.49931       58.92973       38.76874
O         98.44249       59.04825       37.99758
C         97.39391       60.18714       41.03647
C         98.93900       60.21152       41.20376
C         96.74222       59.03132       41.80037
C         99.42081       60.29603       42.65724
H         95.02152       59.44504       39.06131
H         97.49219       61.04058       39.04397
H         97.00382       61.13155       41.47803
H         99.32240       61.11233       40.67736
H         99.40107       59.31461       40.73942
H         96.97812       59.11901       42.86834
H         95.63652       59.07347       41.70763
H         97.11056       58.05414       41.43738
H         99.19311       59.36295       43.20907
H        100.52430       60.42383       42.67379
H         98.95648       61.15803       43.18107
N         96.79227       57.75860       38.81496
C         96.99561       56.66529       37.87998
C         96.76489       55.37217       38.62507
O         95.72518       55.21502       39.25706
C         95.99293       56.75852       36.70456
C         96.05952       58.10742       35.97414
O         96.28376       55.72851       35.79254
H         95.96439       57.69360       39.42245
H         98.02044       56.70396       37.44377
H         94.96081       56.63757       37.10849
H         95.45650       55.54734       35.27670
H         95.30807       58.12852       35.15736
H         95.81451       58.94207       36.66261
H         97.06814       58.27595       35.54069
N         97.69853       54.39416       38.60115
C         97.58817       53.19515       39.42293
C         97.72093       53.57146       40.90417
O         97.25308       52.83702       41.76167
C         98.68898       52.20582       38.97115
C         98.68528       50.86182       39.69280
O         99.95069       52.80527       39.12473
H         98.52914       54.52752       38.00324
H         96.59239       52.72633       39.24050
H         98.49067       52.00447       37.88894
H        100.51405       52.48501       38.37249
H         99.51049       50.24132       39.28007
H         98.86323       50.99398       40.77907
H         97.72686       50.32855       39.52558
N         98.40861       54.69764       41.25823
C         98.66239       55.10241       42.63829
C         97.40759       55.50991       43.38825
O         96.44147       55.93673       42.77190
C         99.63833       56.30584       42.63209
C        101.04616       55.87731       42.19417
C        102.02955       57.05184       42.22903
C        103.44170       56.59208       41.83383
N        104.43281       57.62071       42.14638
H         98.82567       55.26754       40.51000
H         99.13585       54.26063       43.18878
H         99.71909       56.74169       43.64869
H         99.25016       57.09722       41.94992
H        101.02904       55.42851       41.17900
H        101.40153       55.10852       42.91606
H        102.04945       57.44322       43.26856
H        101.70163       57.86881       41.54751
H        103.46881       56.34901       40.74656
H        103.70771       55.67237       42.39948
H        104.40651       57.82936       43.17182
H        105.38619       57.26190       41.91036
H        104.24416       58.49344       41.60347
N         97.41178       55.49191       44.75933
C         96.34135       56.06472       45.57353
C         95.71468       55.02229       46.48875
O         96.44872       54.41725       47.25840
C         96.89880       57.20681       46.43773
C         97.37631       58.35578       45.55569
C         97.80837       59.52894       46.37289
O         98.97332       59.89044       46.36104
O         96.90148       60.21055       47.09854
H         98.23821       55.10926       45.24576
H         95.60038       56.51792       44.91415
H         97.73785       56.84291       47.07502
H         96.08808       57.58180       47.10007
H         96.53665       58.68488       44.91272
H         98.21378       57.99902       44.92235
N         94.37300       54.74027       46.50748
C         93.34273       55.39294       45.71232
H         92.53728       55.75493       46.38369
H         93.64996       56.27728       45.13890
H         92.91646       54.65694       45.00187
H         94.04956       53.99845       47.14759
Ca        91.13326       64.20853       27.99797
O         91.89220       61.54766       28.42367
H         92.03003       60.78418       27.81237
H         92.26082       61.23723       29.28343
O         89.58710       66.22088       27.14975
H         89.00846       66.96523       27.44457
H         89.60410       66.27217       26.16180
O         92.70146       66.51566       27.50618
H         92.40934       67.14226       26.79790
H         93.30585       67.04547       28.08312
O         92.71148       62.97098       26.01796
H         92.37203       62.09640       25.70217
H         93.30918       63.28768       25.29709
O         89.45703       62.76356       26.22145
H         89.50254       62.97880       25.25655
H         89.46278       61.77469       26.26236

Ca 1.70



