%chk=loop4.cluster92.chk
%nprocshared=48
%mem=10GB
%nosave
#b3lyp/svp scf=(tight,noincore) Test 
#IOP(5/87=12) Density=Current Pop=(MK,readradii) iop(6/33=2) iop(6/42=6)

loop4.cluster92 

   -3  1 
C         54.11825       31.08968       29.10751
C         55.12546       32.18455       28.97245
O         56.26950       31.88047       28.71929
H         53.26994       31.28716       28.42319
H         54.57782       30.11512       28.82383
H         53.76614       31.02410       30.15655
N         54.75892       33.49514       29.07736
C         55.68186       34.61907       28.89922
C         56.60823       34.48436       27.70257
O         57.80924       34.32627       27.85867
C         56.29909       35.12758       30.21180
C         57.04016       34.15925       31.10336
O         56.68766       34.06924       32.26992
O         58.19787       33.56343       30.72620
H         53.76072       33.70889       29.21791
H         55.06064       35.50256       28.62476
H         55.45306       35.54117       30.81290
H         56.95860       35.99330       29.97808
N         56.07551       34.62566       26.45660
C         56.79894       34.57115       25.19180
C         58.16239       35.25378       25.21155
O         59.11375       34.73977       24.64536
C         56.72931       33.16213       24.53796
C         55.26727       32.69780       24.25762
C         57.52576       32.11949       25.33069
C         54.45078       32.15442       25.44080
H         55.07486       34.86213       26.39679
H         56.22376       35.23234       24.50603
H         57.19333       33.25739       23.52986
H         55.31026       31.86810       23.52066
H         54.71126       33.53230       23.77555
H         57.18620       32.08930       26.37966
H         57.38668       31.10787       24.92029
H         58.60973       32.34935       25.30916
H         54.29685       32.87675       26.25579
H         53.44084       31.87101       25.07631
H         54.92948       31.24531       25.85878
N         58.27963       36.47817       25.79351
C         59.46771       37.33109       25.71083
C         60.71417       36.71330       26.34558
O         60.73326       36.59304       27.55967
C         59.17380       38.64896       26.47609
C         57.96462       39.36667       25.94768
O         56.89066       39.54978       26.74210
O         57.94409       39.77195       24.79794
H         57.44109       36.85174       26.26159
H         59.64268       37.55557       24.64229
H         60.05015       39.32874       26.44232
H         58.97522       38.39717       27.54583
N         61.82441       36.32448       25.64182
C         61.95661       36.30295       24.19358
C         61.97311       37.67575       23.57573
O         62.51188       38.58833       24.18622
H         62.62516       35.95635       26.18043
H         61.18930       35.64332       23.76053
H         62.93592       35.84326       23.94345
N         61.41942       37.93155       22.35466
C         60.78423       36.92107       21.49460
C         61.80073       35.90414       20.96291
O         62.99263       36.15700       21.06640
C         60.06237       37.65527       20.32927
C         60.97607       38.49407       19.47493
O         61.08704       39.81619       19.70809
O         61.52984       38.00437       18.50367
H         61.44510       38.90990       22.03194
H         60.00648       36.39763       22.08724
H         59.31126       38.32497       20.79549
H         59.47815       37.01320       19.65260
N         61.43081       34.74307       20.33897
C         60.06150       34.23428       20.29623
C         59.87934       33.09065       19.31575
O         58.83939       33.02875       18.67692
H         62.18672       34.17685       19.92678
H         59.36326       34.99874       19.94223
H         59.72715       33.94840       21.31828
N         60.83607       32.13597       19.15608
C         60.70891       31.04832       18.18978
C         60.23246       29.79830       18.86193
O         60.05835       28.78617       18.18885
C         62.07581       30.82239       17.51923
C         62.45558       32.01093       16.62987
C         61.49998       32.10365       15.46546
N         60.72369       33.19700       15.29058
O         61.41076       31.16716       14.68476
H         61.66121       32.13402       19.77117
H         59.93277       31.27165       17.42581
H         62.06539       29.90067       16.89666
H         62.84571       30.67516       18.31034
H         63.48349       31.86400       16.23872
H         62.45187       32.94639       17.23273
H         60.77673       33.99190       15.94343
H         60.05887       33.23801       14.50392
N         59.93945       29.79730       20.18529
C         59.42779       28.63294       20.86239
C         60.46357       27.52317       20.79532
O         61.65113       27.81219       20.72961
C         58.89320       29.01932       22.27145
C         57.80291       30.10489       22.10782
C         59.98716       29.52209       23.23729
H         60.05495       30.66112       20.72649
H         58.53392       28.28496       20.29526
H         58.39882       28.12854       22.71632
H         58.23260       31.10413       21.87505
H         57.08751       29.83932       21.30179
H         57.21135       30.19274       23.03023
H         60.64387       28.68596       23.54343
H         60.61911       30.31718       22.79407
H         59.53427       29.97088       24.14375
N         60.05345       26.23239       20.65079
C         60.93154       25.08885       20.38461
C         61.89925       24.74966       21.51490
O         62.49896       23.67923       21.44696
C         61.71244       25.27005       19.05610
C         62.36767       23.98099       18.61005
N         63.71083       23.82358       18.68641
O         61.67319       23.06327       18.19943
H         59.04023       26.04366       20.67248
H         60.24959       24.21666       20.26369
H         62.48484       26.05527       19.19631
H         61.03975       25.60779       18.23773
H         64.30778       24.56993       19.07119
H         64.14759       22.93482       18.39841
N         62.11715       25.56708       22.58926
C         63.07349       25.21228       23.62671
C         62.92903       26.07048       24.87879
O         62.38743       27.16989       24.80540
C         64.52131       25.33206       23.08886
C         65.46215       24.61186       24.00651
C         65.39543       23.21257       24.09232
C         66.37897       25.31472       24.80017
C         66.22572       22.52211       24.97209
C         67.20473       24.62105       25.68917
C         67.12682       23.22187       25.77961
O         67.90879       22.54441       26.64227
H         61.57703       26.43165       22.69398
H         62.81801       24.16863       23.91948
H         64.76988       26.41479       22.99834
H         64.64221       24.89098       22.07654
H         64.69289       22.66182       23.47749
H         66.43358       26.39555       24.75061
H         66.16025       21.44340       25.03233
H         67.89599       25.17048       26.31455
H         68.52960       22.99984       27.22771
N         63.33395       25.58794       26.09559
C         63.15764       26.30388       27.36070
C         61.70032       26.51935       27.74996
O         61.45889       27.07475       28.80957
C         64.02516       27.59538       27.41032
C         65.42987       27.26962       27.95643
C         65.37256       27.06210       29.45079
O         65.56356       25.95719       29.93250
O         65.10921       28.10667       30.26173
H         63.75176       24.64438       26.13334
H         63.50460       25.64196       28.18257
H         63.58831       28.36937       28.07789
H         64.09071       28.04909       26.40021
H         66.13634       28.10531       27.77291
H         65.82113       26.36585       27.44465
N         60.68481       25.99671       27.00571
C         59.29575       26.00474       27.43471
C         58.81669       24.56448       27.64491
O         57.63333       24.37140       27.89538
C         58.45505       26.75490       26.37388
C         58.81026       28.25687       26.24509
C         58.50034       29.12823       27.44189
O         58.88760       30.42946       27.42679
O         57.94496       28.66382       28.42237
H         60.88478       25.50245       26.13020
H         59.16087       26.50957       28.41157
H         57.37298       26.67280       26.60471
H         58.63305       26.27075       25.38661
H         58.22880       28.66875       25.39638
H         59.89367       28.35297       26.01798
N         59.67838       23.50003       27.58527
C         59.24886       22.14014       27.83458
H         58.33438       21.90213       27.25256
H         60.05019       21.43402       27.52513
H         59.06228       21.99386       28.92010
H         60.67791       23.64177       27.38027
Ca        58.74266       32.01799       29.09930
O         60.79150       32.26025       31.51114
H         61.25955       31.47705       31.89426
H         60.63726       32.86267       32.28163
O         61.57044       30.41104       29.08031
H         61.39893       29.63938       29.67442
H         61.06988       30.19589       28.25785
O         60.46571       34.74390       29.95654
H         60.33802       35.68957       30.21719
H         60.34831       34.73262       28.97666
O         60.76841       33.18059       26.98534
H         61.70881       33.32215       27.25671
H         60.54976       33.99002       26.46568
O         58.71458       30.01148       30.98100
H         59.25463       29.21188       30.76192
H         57.87368       29.89974       30.47062

Ca 1.70



