%chk=loop4.cluster155.chk
%nprocshared=48
%mem=10GB
%nosave
#b3lyp/svp scf=(tight,noincore) Test 
#IOP(5/87=12) Density=Current Pop=(MK,readradii) iop(6/33=2) iop(6/42=6)

loop4.cluster155 

   -3  1 
C         59.11874       31.39325       35.08828
C         60.48095       32.00483       35.22979
O         61.37181       31.32691       35.70753
H         58.38670       32.10843       34.66174
H         59.19252       30.51759       34.40586
H         58.75615       31.04064       36.07598
N         60.73767       33.26646       34.77356
C         62.07668       33.85430       34.74696
C         63.03478       32.96133       34.00523
O         63.79498       32.25688       34.63033
C         62.58737       34.39402       36.11015
C         62.71799       33.46615       37.29851
O         61.98487       33.65438       38.25662
O         63.67104       32.50518       37.40382
H         59.97016       33.79766       34.33546
H         62.01808       34.78883       34.14380
H         61.85579       35.18388       36.39835
H         63.55966       34.91241       35.96023
N         62.98923       32.89321       32.64698
C         63.85440       32.04856       31.81841
C         65.28872       32.56438       31.69055
O         65.82356       32.49510       30.58966
C         63.82723       30.53178       32.18488
C         64.47819       29.64290       31.08541
C         62.41382       30.02506       32.50427
C         63.71239       29.57068       29.75776
H         62.26831       33.44913       32.16300
H         63.42147       32.13497       30.80153
H         64.43066       30.39345       33.10403
H         64.54896       28.60475       31.46940
H         65.51358       29.98747       30.88611
H         61.70789       30.24903       31.67958
H         62.43298       28.93097       32.69544
H         62.03513       30.50400       33.42271
H         64.26317       28.91104       29.05551
H         62.70552       29.12916       29.90937
H         63.60903       30.56329       29.27808
N         65.97730       33.11118       32.73915
C         67.34397       33.58850       32.61590
C         68.20837       33.14492       33.80560
O         67.66256       32.64177       34.78104
C         67.30336       35.12506       32.40686
C         66.46039       35.85958       33.41532
O         66.86403       35.96086       34.69096
O         65.41558       36.39022       33.06807
H         65.51670       33.27477       33.63479
H         67.78412       33.13219       31.70953
H         66.84096       35.29182       31.41081
H         68.31392       35.57962       32.38214
N         69.56961       33.29861       33.82775
C         70.33787       33.78629       32.68657
C         71.56852       32.94999       32.40558
O         71.93425       32.12171       33.22409
H         70.08032       33.04891       34.68882
H         70.64915       34.83441       32.86678
H         69.73446       33.75815       31.78274
N         72.30695       33.13478       31.26941
C         71.95425       34.08401       30.21401
C         70.70009       33.66952       29.43389
O         69.78940       34.48092       29.35902
C         73.11727       34.37815       29.24645
C         74.35325       34.82487       29.98531
O         74.69051       35.99729       29.96486
O         75.10767       33.92923       30.65104
H         73.17408       32.58572       31.17390
H         71.75950       35.07219       30.69342
H         72.77527       35.21263       28.59161
H         73.37474       33.52709       28.58625
N         70.52068       32.43960       28.85474
C         71.43402       31.31034       28.94466
C         71.47653       30.50923       27.66331
O         70.98432       30.96800       26.63788
H         69.59735       32.25409       28.42690
H         71.00864       30.62962       29.71102
H         72.45914       31.57766       29.25404
N         71.98452       29.24086       27.67935
C         71.96571       28.36319       26.51538
C         70.89628       27.27727       26.61421
O         70.70906       26.55061       25.65073
C         73.35946       27.78856       26.23993
C         74.35800       28.90657       25.88870
C         75.48581       28.35789       25.05522
N         76.76684       28.41710       25.47716
O         75.23313       27.86650       23.96428
H         72.33211       28.85931       28.57439
H         71.66300       28.93416       25.60859
H         73.24866       27.11165       25.36716
H         73.74001       27.18475       27.09600
H         74.70432       29.40697       26.82155
H         73.86627       29.67768       25.25689
H         77.00477       28.82879       26.38956
H         77.52005       28.04380       24.87980
N         70.07494       27.20372       27.70028
C         68.82725       26.43865       27.70374
C         68.73192       25.44685       28.84967
O         67.68573       24.82045       28.98689
C         67.63746       27.44123       27.72993
C         67.54586       28.18126       26.38665
C         67.73211       28.45576       28.88796
H         70.26469       27.79863       28.51281
H         68.71631       25.82694       26.78004
H         66.69280       26.86481       27.84342
H         67.42965       27.44705       25.55927
H         66.66422       28.85472       26.37311
H         68.46021       28.78259       26.19607
H         66.82314       29.08745       28.92107
H         67.84137       27.93273       29.86131
H         68.59184       29.14756       28.75451
N         69.79441       25.17566       29.65744
C         69.74953       24.13282       30.67969
C         70.29992       24.54756       32.02517
O         70.08731       23.80990       32.97574
C         70.58929       22.94761       30.19033
C         69.90754       22.26592       29.03831
N         70.42811       22.32308       27.79298
O         68.86327       21.66122       29.23303
H         70.69515       25.63033       29.45313
H         68.70182       23.79758       30.86382
H         70.73919       22.19040       30.98987
H         71.59272       23.33736       29.90196
H         71.29034       22.85515       27.60709
H         69.94858       21.85379       27.01120
N         71.12044       25.62570       32.17604
C         71.75086       25.91182       33.45598
C         70.69755       26.32288       34.48177
O         70.11694       27.39272       34.36656
C         72.86115       26.95730       33.25170
C         73.40333       27.47372       34.55009
C         74.10318       26.64091       35.43904
C         73.17791       28.81467       34.88471
C         74.56687       27.15636       36.65490
C         73.63068       29.32231       36.09602
C         74.32673       28.49646       36.98779
O         74.76335       28.98390       38.16495
H         71.36925       26.20258       31.36367
H         72.25171       24.98478       33.81102
H         72.43627       27.80474       32.67169
H         73.68097       26.52102       32.63532
H         74.28627       25.60121       35.19290
H         72.63319       29.46232       34.20888
H         75.10548       26.51514       37.34112
H         73.43430       30.35731       36.34076
H         74.60146       29.90423       38.41864
N         70.37339       25.45321       35.48897
C         69.34628       25.68361       36.50502
C         67.94511       25.87339       35.94441
O         67.05142       26.26338       36.68314
C         69.77961       26.74068       37.53975
C         71.06457       26.31806       38.28442
C         70.89991       25.00847       39.01776
O         69.94101       24.87205       39.95440
O         71.62646       24.06252       38.75607
H         70.85847       24.54585       35.51982
H         69.23692       24.74471       37.08470
H         68.97779       26.84878       38.30294
H         69.93024       27.72775       37.05464
H         71.32110       27.09813       39.03035
H         71.90508       26.23785       37.56252
N         67.65644       25.47619       34.67653
C         66.31503       25.42224       34.12589
C         66.03033       23.99546       33.64100
O         65.05320       23.79078       32.93415
C         66.22755       26.45343       32.97852
C         66.67320       27.87101       33.41935
C         65.84771       28.53890       34.47679
O         66.26787       29.74301       34.95322
O         64.81310       28.02628       34.87019
H         68.41192       25.15199       34.06684
H         65.54211       25.68371       34.87836
H         65.19333       26.48262       32.56942
H         66.91345       26.13739       32.16268
H         66.68216       28.54631       32.54318
H         67.70755       27.82016       33.80078
N         66.82926       22.94789       34.02835
C         66.64576       21.58713       33.56705
H         65.97368       21.52139       32.68723
H         67.63502       21.17085       33.27491
H         66.24640       20.96711       34.39676
H         67.58317       23.09895       34.71261
Ca        65.34881       31.29850       36.37683
O         67.32097       29.44854       38.01330
H         67.83838       28.94412       38.68903
H         67.08676       28.77722       37.32616
O         66.21796       34.20990       37.28023
H         65.90933       34.60358       38.13271
H         65.98924       34.89236       36.60714
O         65.48221       31.81673       39.47670
H         65.66045       31.14651       40.18204
H         64.66792       32.28886       39.78413
O         68.34499       32.18823       37.86708
H         68.47760       33.14393       37.64794
H         68.43167       32.14651       38.85235
O         63.47476       29.47017       37.20610
H         62.81584       30.19926       37.17436
H         63.77964       29.43826       36.27317

Ca 1.70



