%chk=loop2.cluster11.chk
%nprocshared=48
%mem=10GB
%nosave
#b3lyp/svp scf=(tight,noincore) Test 
#IOP(5/87=12) Density=Current Pop=(MK,readradii) iop(6/33=2) iop(6/42=6)

loop2.cluster11 

   -2  1 
C         59.52618       29.93474       11.62877
C         59.77479       30.18979       10.16576
O         59.06329       29.65661        9.33124
H         58.47770       29.62854       11.81635
H         60.19626       29.11814       11.98050
H         59.74209       30.84388       12.22557
N         60.79503       31.00342        9.78239
C         61.21163       31.18193        8.38956
C         61.75876       29.87485        7.83788
O         61.37819       29.47977        6.74412
C         62.30419       32.25962        8.32176
C         62.85922       32.42254        6.93053
O         64.16098       32.17225        6.70071
O         62.13660       32.75358        6.00440
H         61.31947       31.49569       10.52166
H         60.35109       31.52329        7.77264
H         63.13200       31.97333        9.00300
H         61.88612       33.22662        8.67855
N         62.59069       29.10929        8.61291
C         63.04127       27.75468        8.27501
C         61.91703       26.82788        7.78246
O         62.19400       25.79786        7.18323
C         64.28513       27.79173        7.38452
H         62.83937       29.46530        9.54664
H         63.41380       27.29683        9.21642
H         65.06578       28.41523        7.87834
H         64.70386       26.76505        7.29006
H         64.07211       28.20384        6.37999
N         60.61651       27.14700        8.04314
C         59.42837       26.39275        7.69017
C         59.41356       25.91769        6.25045
O         59.33692       24.72209        6.00006
C         59.16786       25.29474        8.72681
C         57.73196       24.80511        8.72110
O         57.42814       23.87549        9.44817
O         56.76901       25.41509        7.97755
H         60.43933       27.97980        8.59622
H         58.58050       27.10424        7.80769
H         59.34437       25.71060        9.74452
H         59.88885       24.46416        8.57107
N         59.43762       26.82674        5.24266
C         59.29973       26.42042        3.85759
C         59.35064       27.62068        2.95780
O         60.42547       28.18332        2.80283
H         59.49504       27.82962        5.47573
H         58.33345       25.88722        3.73438
H         60.11884       25.72331        3.56757
N         58.21918       28.09757        2.35122
C         58.27712       29.20675        1.40128
C         57.69173       30.48667        1.94742
O         57.04813       30.47773        2.98694
C         57.55355       28.83561        0.07900
C         56.04361       29.03146        0.13064
N         55.43537       29.87765       -0.74016
O         55.37601       28.44648        0.97028
H         57.30936       27.66161        2.56543
H         59.34089       29.41343        1.16182
H         57.80201       27.79209       -0.20467
H         57.94416       29.49735       -0.72199
H         55.97997       30.37506       -1.46088
H         54.41704       30.03468       -0.69816
N         57.82147       31.62217        1.20683
C         57.12575       32.85747        1.49409
C         57.59898       33.52051        2.75113
O         58.48470       34.36814        2.68523
H         58.38355       31.58297        0.34426
H         56.02991       32.67029        1.52813
H         57.29993       33.55667        0.64862
N         56.96286       33.28219        3.92780
C         57.30808       33.96453        5.16746
C         56.17762       33.86234        6.18538
O         55.19699       33.15612        5.95312
C         58.66774       33.41013        5.68925
C         59.19808       34.07567        6.96193
O         58.54998       32.02558        5.91341
H         56.17243       32.61760        3.91541
H         57.40526       35.05363        4.94598
H         59.42294       33.61940        4.89656
H         59.26837       31.57067        5.40235
H         59.18066       35.18185        6.87610
H         58.62938       33.73300        7.85156
H         60.24560       33.79138        7.13114
N         56.22026       34.59120        7.32924
C         55.17777       34.56557        8.34165
C         54.91173       33.17000        8.84521
O         55.84624       32.40889        9.04543
C         55.50315       35.52761        9.49211
C         54.28622       35.65893       10.43936
C         56.77414       35.11723       10.27225
C         54.17552       37.07691       10.97590
H         57.01216       35.23520        7.46637
H         54.25110       34.94633        7.85073
H         55.67439       36.50517        8.98884
H         54.33634       34.89675       11.25022
H         53.33233       35.49056        9.89402
H         56.63128       34.13529       10.77518
H         57.65167       35.01998        9.60280
H         57.02015       35.86704       11.04734
H         53.98873       37.75966       10.11496
H         53.31052       37.15050       11.66504
H         55.10586       37.38590       11.49007
N         53.62670       32.75069        8.97199
C         53.28535       31.34844        9.06962
C         51.90104       31.17671        8.53154
O         51.74371       30.65231        7.44031
C         53.43840       30.73291       10.48018
C         53.25158       29.23965       10.35371
O         54.34958       28.44789       10.39280
O         52.15425       28.77507       10.08264
H         52.87441       33.42864        8.77092
H         53.96252       30.80814        8.38078
H         52.74853       31.17442       11.23697
H         54.46825       30.92408       10.83956
N         50.83974       31.60854        9.25439
C         49.48478       31.42548        8.79427
C         48.78507       30.38105        9.65160
O         48.35234       29.39477        9.06644
C         48.79024       32.79394        8.63738
C         47.49815       32.71006        7.86366
C         47.48650       32.20810        6.54630
C         46.30073       33.16447        8.43557
C         46.29306       32.14855        5.82587
C         45.10989       33.11082        7.70542
C         45.10542       32.60006        6.40393
H         51.00842       32.05624       10.16111
H         49.50710       30.99525        7.77262
H         49.46432       33.45770        8.05199
H         48.63332       33.28231        9.61536
H         48.39870       31.86737        6.07300
H         46.29224       33.56761        9.44017
H         46.29186       31.75709        4.81641
H         44.19059       33.46864        8.14819
H         44.18285       32.55887        5.84098
N         48.63106       30.45740       11.01865
C         48.98180       31.56228       11.89490
C         49.94460       31.18154       13.03615
O         49.96743       31.91054       14.01304
C         47.58637       31.82705       12.47509
C         46.84991       30.45858       12.46562
C         47.80151       29.52058       11.73218
H         49.37691       32.47978       11.43577
H         47.52375       32.40938       13.41836
H         47.07968       32.44363       11.69773
H         46.58881       30.05111       13.46398
H         45.92522       30.59011       11.86000
H         48.42317       29.01256       12.49477
H         47.29985       28.72881       11.13558
N         50.72122       30.05198       13.00661
C         51.49833       29.55451       14.15886
C         52.80230       30.32037       14.44672
O         53.87803       29.75181       14.29932
C         51.80861       28.03386       13.97677
C         50.56737       27.13885       13.76640
C         49.56807       27.13572       14.89806
O         49.80635       27.79196       16.04996
O         48.52962       26.50741       14.77485
H         50.66217       29.45508       12.17099
H         50.88077       29.63532       15.07199
H         52.35967       27.65687       14.86808
H         52.47024       27.90227       13.09090
H         50.90648       26.09144       13.61389
H         50.05218       27.44263       12.83662
N         52.78426       31.59261       14.93615
C         53.99113       32.28831       15.32723
H         54.75367       32.24536       14.52248
H         53.75143       33.35390       15.53240
H         54.39381       31.84094       16.26190
H         51.90001       32.07580       15.09563
Ca        55.24319       26.96193        8.83151
O         56.41596       27.20130        5.91200
H         56.60947       27.90367        5.24318
H         56.55387       26.34855        5.43117
O         54.07860       25.35794        6.48442
H         53.64391       25.14528        5.62157
H         54.54199       24.52252        6.74415
O         57.14484       27.49481       10.63754
H         56.77319       27.65598       11.53859
H         57.20825       28.39628       10.23976
O         54.74575       25.24409       10.83930
H         55.63373       24.85148       10.66636
H         54.74526       25.41614       11.81097
O         56.54824       29.41700        7.98698
H         56.87815       29.36809        7.05935
H         56.13673       30.30854        8.03011
O         52.56839       26.18172        8.87582
H         51.80261       26.19978        8.25078
H         52.17345       26.33002        9.77066
O         54.01313       28.80984        6.70613
H         53.03306       28.76837        6.82507
H         54.18397       29.68293        6.27012

Ca 1.70



