%chk=loop1.cluster82.chk
%nprocshared=48
%mem=10GB
%nosave
#b3lyp/svp scf=(tight,noincore) Test 
#IOP(5/87=12) Density=Current Pop=(MK,readradii) iop(6/33=2) iop(6/42=6)

loop1.cluster82 

   0  1 
C         42.27713       47.62170       47.56485
C         43.24423       48.34858       46.67733
O         44.06433       47.72292       46.02146
H         41.30394       47.50481       47.04231
H         42.67553       46.63384       47.87202
H         42.09927       48.22537       48.48176
N         43.16710       49.70219       46.59650
C         44.03443       50.55232       45.79348
C         44.05219       50.15235       44.33541
O         45.10650       50.09966       43.71537
C         45.43063       50.67162       46.42238
C         46.17308       51.85114       45.85380
O         45.59207       53.06689       45.84051
O         47.30135       51.71670       45.41134
H         42.43656       50.17589       47.15039
H         43.56247       51.55909       45.84416
H         46.00608       49.72617       46.29635
H         45.29740       50.85642       47.50784
N         42.88426       49.85592       43.72298
C         42.79199       49.57245       42.30307
C         42.74513       50.88256       41.55750
O         43.38427       51.00076       40.52146
C         41.56164       48.69120       42.03921
C         41.77609       47.31669       42.68875
C         40.56948       46.38800       42.54724
C         40.94922       45.04284       43.19263
N         39.90469       44.02740       43.08958
H         42.01499       49.87901       44.28006
H         43.67811       48.99515       41.94911
H         41.43708       48.53809       40.94614
H         40.65204       49.18216       42.44704
H         42.00826       47.42711       43.77244
H         42.65215       46.83606       42.19683
H         40.32571       46.25851       41.47106
H         39.68824       46.84010       43.05953
H         41.17833       45.22232       44.26664
H         41.86538       44.65269       42.69630
H         39.82679       43.69187       42.10241
H         40.18752       43.21720       43.68927
H         38.98613       44.39261       43.42797
N         42.03198       51.93239       42.06149
C         42.01396       53.24983       41.43654
C         42.51233       54.33652       42.40836
O         43.13107       55.28733       41.95840
C         40.61000       53.48085       40.86359
C         40.52670       54.56797       39.82245
O         39.45059       54.79998       39.29434
O         41.63539       55.21517       39.39098
H         41.47260       51.77853       42.91081
H         42.72098       53.24538       40.57899
H         39.89468       53.65458       41.69554
H         40.30193       52.54392       40.34307
N         42.41273       54.17741       43.76497
C         43.12629       55.00082       44.73549
C         42.70616       56.44394       44.73094
O         43.56007       57.31900       44.75741
H         41.87107       53.39570       44.14893
H         44.21896       54.91731       44.54439
H         42.91888       54.59099       45.74440
N         41.38813       56.75941       44.63864
C         40.93178       58.11261       44.34409
C         40.94773       58.99833       45.56667
O         40.06261       58.87431       46.40522
C         39.52402       58.06742       43.70180
C         39.50293       57.07385       42.58158
O         40.48681       57.08733       41.68274
O         38.68584       56.16785       42.56778
H         40.71860       55.98059       44.57071
H         41.61449       58.54451       43.57646
H         39.26431       59.07163       43.31117
H         38.75762       57.74983       44.44116
N         41.93122       59.93614       45.72746
C         41.98031       60.85018       46.86093
C         42.56367       60.22170       48.10530
O         43.24212       60.90831       48.86032
H         42.65598       60.02995       45.00122
H         40.97384       61.26495       47.07098
H         42.63358       61.70827       46.58391
N         42.38193       58.89730       48.35594
C         42.93821       58.22396       49.49826
C         42.18876       58.56458       50.75267
O         41.01732       58.92300       50.72094
C         43.01595       56.69300       49.30274
C         41.67359       56.05569       48.90551
O         43.97669       56.41454       48.31712
H         41.86904       58.32989       47.69661
H         43.98739       58.57220       49.63108
H         43.35477       56.27388       50.27737
H         44.15300       55.43998       48.34721
H         41.70515       54.96608       49.10508
H         40.82735       56.50280       49.46643
H         41.49377       56.18464       47.81588
N         42.85788       58.44556       51.91862
C         42.32601       58.83207       53.20942
C         43.19934       59.93339       53.82556
O         42.76701       60.58179       54.76863
C         42.22162       57.56378       54.09359
C         43.62587       57.07285       54.54776
C         41.42362       56.46522       53.35558
C         43.61279       55.71986       55.25180
H         43.80700       58.05802       51.86748
H         41.30360       59.25394       53.07760
H         41.64772       57.83126       55.00577
H         44.01127       57.83407       55.25771
H         44.35338       56.99570       53.71035
H         42.00953       56.03228       52.51535
H         41.16379       55.65069       54.06083
H         40.46894       56.86530       52.95108
H         44.55581       55.59624       55.82269
H         42.75475       55.64202       55.94914
H         43.55502       54.90473       54.49598
N         44.43710       60.20988       53.30374
C         45.32719       61.24676       53.77711
C         46.72904       60.68869       53.88297
O         47.10353       59.81868       53.10475
C         45.27391       62.45026       52.79558
C         45.75417       62.13177       51.36666
O         43.95232       62.91527       52.72739
H         44.78732       59.67563       52.50989
H         45.00122       61.61775       54.77394
H         45.92463       63.27824       53.16197
H         43.75963       63.34181       53.60373
H         46.86157       62.05183       51.34149
H         45.31452       61.19526       50.96713
H         45.45700       62.95210       50.67779
N         47.59777       61.23107       54.76380
C         49.00244       60.87063       54.77138
C         49.51014       60.86423       56.18856
O         50.05057       59.85447       56.62020
C         49.77541       61.84339       53.84109
C         51.27587       61.52201       53.78848
O         49.57628       63.17207       54.25174
H         47.27516       62.01870       55.34442
H         49.15069       59.84414       54.35966
H         49.35395       61.72022       52.81554
H         50.08647       63.75768       53.63452
H         51.77839       62.20866       53.07410
H         51.73489       61.66182       54.78765
H         51.44827       60.47956       53.44742
N         49.41624       61.98581       56.95847
C         50.07675       62.08252       58.24429
C         49.20974       62.76479       59.28441
O         48.45743       63.67445       58.96125
C         51.43757       62.75105       58.00707
C         51.36900       64.24178       57.59284
C         51.49508       65.23712       58.75493
C         52.88955       65.12308       59.40458
N         53.06467       66.09602       60.46739
H         49.00098       62.83685       56.55668
H         50.32495       61.06550       58.61863
H         51.89099       62.18969       57.16071
H         52.12394       62.55242       58.84859
H         50.44209       64.44633       57.02076
H         52.21370       64.45341       56.90514
H         50.68488       65.10275       59.50388
H         51.39143       66.26190       58.33310
H         53.67048       65.28399       58.63174
H         53.03628       64.12041       59.85013
H         52.33562       65.90877       61.16546
H         54.00003       65.96429       60.91758
H         52.94596       67.07288       60.12171
N         49.33259       62.40336       60.58690
C         48.63329       63.07520       61.67804
C         47.10845       62.97487       61.75286
O         46.54544       63.84766       62.39994
C         49.21780       62.61288       63.02560
C         50.59592       63.23476       63.26630
C         50.46785       64.72716       63.45512
O         49.41701       65.25119       64.11410
O         51.33721       65.46778       63.05468
H         50.03294       61.68080       60.81791
H         48.82333       64.16518       61.55934
H         49.26223       61.50011       63.04663
H         48.57382       62.91889       63.87834
H         51.30208       62.98631       62.43948
H         51.01002       62.81811       64.20460
N         46.33435       61.98552       61.22181
C         46.81348       60.80762       60.54246
H         47.80012       60.47333       60.91348
H         46.10486       59.97764       60.76211
H         46.78588       60.97406       59.44706
H         45.31694       62.04323       61.38882
Ca        42.16321       57.20545       40.27630
O         44.21232       58.33713       42.23929
H         45.03446       57.85455       42.50754
H         44.13904       59.08473       42.88470
O         40.61769       59.13407       39.04957
H         39.70695       58.77481       38.90498
H         40.83789       59.61980       38.21644
O         44.81989       56.42060       39.55049
H         45.47862       55.79182       39.93562
H         45.09404       56.52413       38.60531
O         43.79455       59.73325       39.42311
H         44.52030       59.72215       38.74975
H         43.79463       60.65806       39.77629
O         42.85842       57.28522       37.57786
H         42.10382       56.75388       37.22160
H         42.85916       58.12090       37.05003

Ca 1.70



