%chk=loop3.cluster77.chk
%nprocshared=48
%mem=10GB
%nosave
#b3lyp/svp scf=(tight,noincore) Test 
#IOP(5/87=12) Density=Current Pop=(MK,readradii) iop(6/33=2) iop(6/42=6)

loop3.cluster77 

   0  1 
C         95.64448       38.89126       96.63690
C         96.06809       40.26261       97.06902
O         96.55040       41.03186       96.25251
H         94.78695       38.96248       95.94053
H         96.49408       38.36780       96.14914
H         95.33953       38.28275       97.51598
N         95.94692       40.61657       98.37345
C         96.45347       41.86030       98.93362
C         97.62774       41.52668       99.82620
O         97.94221       40.35392      100.00550
C         95.35808       42.60286       99.75205
C         94.76461       41.76190      100.85896
O         95.01632       42.06474      102.14650
O         94.03554       40.81879      100.59598
H         95.55516       39.92075       99.02107
H         96.82666       42.54317       98.13517
H         94.53746       42.96399       99.09683
H         95.81131       43.50645      100.21389
N         98.32251       42.51490      100.44503
C         99.39705       42.22214      101.38305
C        100.59534       41.56559      100.70923
O        101.37227       40.92095      101.39717
C         99.84944       43.50071      102.08268
C         98.73105       44.11880      102.95175
C         99.19237       45.45195      103.55088
C         99.18954       46.57314      102.49366
N         99.84615       47.77559      102.99633
H         98.05086       43.49625      100.27147
H         98.99670       41.51875      102.14952
H        100.19642       44.19596      101.29279
H        100.70999       43.27409      102.74903
H         98.51254       43.40031      103.77172
H         97.78381       44.28384      102.39234
H        100.20259       45.30866      103.99227
H         98.50155       45.75518      104.36773
H         98.13350       46.79954      102.22053
H         99.71360       46.26832      101.56716
H         99.75995       48.53108      102.27852
H         99.40889       48.09241      103.89065
H        100.86216       47.57386      103.14628
N        100.79853       41.68663       99.36474
C        101.85376       40.97083       98.64995
C        102.84471       41.89365       97.92540
O        104.03870       41.63230       97.98817
C        101.22790       39.90867       97.70958
C        100.26105       40.36971       96.65343
O         99.77823       39.54823       95.89179
O         99.88423       41.65310       96.55657
H        100.14939       42.26868       98.82378
H        102.46024       40.35815       99.35421
H        100.66724       39.18166       98.33827
H        102.05274       39.36014       97.20678
N        102.42389       42.96111       97.18686
C        103.29778       43.76934       96.34529
C        104.33044       44.56155       97.12010
O        103.96027       45.18343       98.10511
H        101.42985       43.20830       97.18426
H        102.65947       44.51718       95.83022
H        103.74343       43.13051       95.56398
N        105.64199       44.65682       96.73127
C        106.20404       44.03432       95.52507
C        105.59154       44.60101       94.25095
O        104.98751       45.66402       94.30617
C        107.73653       44.26821       95.49195
C        108.40151       43.49464       96.59887
N        109.13894       44.12359       97.54087
O        108.27506       42.27963       96.64066
H        106.27046       45.22204       97.32579
H        105.99537       42.94591       95.56217
H        107.95447       45.35888       95.56356
H        108.19279       43.93367       94.54309
H        109.26809       45.14503       97.51541
H        109.58540       43.57974       98.29389
N        105.69700       43.96664       93.04179
C        106.29878       42.65202       92.82183
C        105.30504       41.53288       92.99615
O        104.21634       41.76754       93.48679
H        105.26352       44.41969       92.22144
H        107.19248       42.45630       93.43578
H        106.62672       42.62116       91.76177
N        105.60319       40.28124       92.53780
C        104.65983       39.16860       92.62109
C        105.33047       37.90835       93.16210
O        106.54555       37.78413       93.12773
C        104.06366       38.83624       91.22748
C        103.03682       39.82096       90.68531
C        101.69397       39.41810       90.54046
C        103.39332       41.11834       90.28331
C        100.73260       40.27741       90.01706
C        102.42516       41.98119       89.74549
C        101.09375       41.55828       89.60824
O        100.15782       42.37283       89.08103
H        106.50588       40.12945       92.06396
H        103.82310       39.41053       93.31325
H        103.55438       37.85842       91.31540
H        104.87747       38.69301       90.48447
H        101.37717       38.44550       90.83286
H        104.41584       41.45590       90.36395
H         99.70494       39.94127       89.93129
H        102.70887       42.97440       89.42676
H        100.36508       43.27145       88.79242
N        104.54145       36.89892       93.62907
C        105.04792       35.58220       94.01144
C        105.27161       34.71416       92.77727
O        106.29139       34.03662       92.71195
C        104.19369       34.90221       95.13185
C        104.46656       35.58629       96.49751
C        102.68143       34.86459       94.83560
C        103.95013       34.77198       97.68509
H        103.52714       37.05256       93.62546
H        106.06406       35.68963       94.45307
H        104.56806       33.85773       95.20971
H        104.04657       36.61715       96.52246
H        105.56527       35.66445       96.64183
H        102.25072       35.88368       94.90304
H        102.47669       34.43930       93.83482
H        102.13772       34.25126       95.58114
H        104.29540       35.23897       98.63162
H        102.84330       34.72486       97.70192
H        104.36255       33.74054       97.63947
N        104.39414       34.72469       91.73276
C        104.67117       34.08367       90.44840
C        103.92377       32.77836       90.24001
O        104.20119       32.10800       89.25812
C        104.35337       35.04963       89.27616
O        102.97234       35.22771       89.07514
H        103.54786       35.28319       91.83066
H        105.75713       33.84412       90.39610
H        104.74460       34.61045       88.33485
H        104.85350       36.03287       89.41446
H        102.56714       35.51712       89.92512
N        102.93812       32.36647       91.09518
C        102.21686       31.11699       90.86048
C        100.87876       31.08156       91.58003
O        100.79467       31.49421       92.72612
C        103.05831       29.91955       91.31798
H        102.66956       32.96237       91.88676
H        102.02539       31.00882       89.76993
H        103.15996       29.91169       92.42462
H        102.56523       28.97358       91.00214
H        104.07260       29.94447       90.86922
N         99.79638       30.51894       90.96014
C         98.51092       30.28915       91.61822
C         97.84568       31.55972       92.11797
O         97.10643       31.50244       93.09410
C         98.66884       29.23118       92.72063
H         99.90031       30.17593       89.99434
H         97.81542       29.85213       90.86838
H         97.69042       29.00291       93.19388
H         99.05988       28.29359       92.27190
H         99.37405       29.56794       93.50815
N         98.04767       32.74763       91.48244
C         97.41184       33.98752       91.91861
C         96.64914       34.70457       90.81123
O         95.81573       35.54098       91.13202
C         98.44485       34.90055       92.57324
C         99.61852       35.26715       91.66316
C        100.56089       36.16084       92.40222
O        100.27291       36.61594       93.63669
O        101.60761       36.47402       91.88720
H         98.70975       32.77215       90.69566
H         96.66259       33.77088       92.71244
H         98.86462       34.36512       93.45558
H         97.94050       35.82522       92.92947
H         99.27280       35.77780       90.73686
H        100.17248       34.34801       91.37066
N         96.88926       34.45147       89.48995
C         96.13215       35.06814       88.42044
H         95.29963       35.70208       88.79041
H         96.80673       35.68835       87.79416
H         95.69903       34.26343       87.79049
H         97.63797       33.80790       89.21219
Ca        98.50398       41.55556       94.29690
O        101.06573       41.32956       93.40974
H        101.88600       41.75650       93.74593
H        101.27314       41.09797       92.47733
O         98.90533       39.33228       92.90007
H         99.71549       38.84306       92.62156
H         98.15033       38.71487       92.74131
O         98.61099       42.86820       91.90455
H         98.68573       43.78251       91.53759
H         98.88710       42.26717       91.17199
O         97.03884       43.68348       95.03631
H         97.18130       44.51684       94.52356
H         96.98580       43.96218       95.98351
O         96.17282       41.17213       92.96313
H         95.59365       41.60980       93.63601
H         96.16917       41.78847       92.18926
O        100.04812       43.90421       94.30076
H         99.98908       44.70175       94.88181
H        100.75152       44.11681       93.63803

Ca 1.70



