%chk=loop3.cluster9.chk
%nprocshared=48
%mem=10GB
%nosave
#b3lyp/svp scf=(tight,noincore) Test 
#IOP(5/87=12) Density=Current Pop=(MK,readradii) iop(6/33=2) iop(6/42=6)

loop3.cluster9 

   0  1 
C         22.90948       49.38961       18.03991
C         24.19119       49.10324       17.30954
O         24.33342       49.52387       16.17113
H         22.06414       48.89667       17.51656
H         22.94270       49.01665       19.08617
H         22.73281       50.48529       18.06801
N         25.18053       48.38736       17.91528
C         26.46253       48.08683       17.27214
C         26.19608       47.23361       16.03366
O         25.73701       46.10511       16.14876
C         27.35547       47.41847       18.33542
C         28.77635       46.97739       18.13540
O         29.54396       47.25215       17.06774
O         29.27500       46.34576       19.04426
H         25.01288       48.05067       18.87756
H         26.92998       49.05166       16.98803
H         26.81532       46.50619       18.66276
H         27.40319       48.12035       19.19766
N         26.33072       47.80375       14.80519
C         25.87488       47.20461       13.55659
C         26.71706       46.00904       13.13564
O         26.23057       45.18462       12.37491
C         25.90670       48.30828       12.47315
C         25.14491       47.99436       11.18754
C         25.32162       49.14445       10.18113
C         24.40307       48.95248        8.96955
N         24.58006       50.02257        7.98672
H         26.64823       48.77245       14.77257
H         24.81769       46.89013       13.71146
H         26.96357       48.55571       12.24872
H         25.41998       49.21792       12.89506
H         24.06959       47.88303       11.45125
H         25.50574       47.05398       10.72445
H         26.38640       49.18819        9.85922
H         25.06250       50.11420       10.66351
H         23.35081       48.95946        9.33044
H         24.60486       47.97161        8.48534
H         25.49941       49.91290        7.50034
H         23.81398       49.95976        7.27761
H         24.53337       50.96136        8.44580
N         28.01252       45.88395       13.55326
C         28.86177       44.74477       13.19780
C         29.38847       44.00443       14.42859
O         30.09106       43.01599       14.26410
C         30.02559       45.19698       12.28738
C         31.01922       46.14508       12.90004
O         30.85266       46.62433       14.14346
O         31.98728       46.49647       12.24751
H         28.41364       46.63116       14.13469
H         28.27918       44.00656       12.60502
H         29.60432       45.67849       11.37838
H         30.58767       44.29419       11.96675
N         29.07924       44.41213       15.69306
C         29.56107       43.73893       16.88644
C         31.05724       43.88898       17.10337
O         31.67374       42.95953       17.60214
H         28.45411       45.21559       15.83304
H         29.25893       42.66895       16.87910
H         29.05728       44.19446       17.76114
N         31.69901       45.05756       16.80156
C         33.13230       45.25866       17.01021
C         33.45694       45.81631       18.39837
O         34.62778       46.01915       18.69097
C         33.73739       46.14104       15.87981
C         33.41294       47.62089       15.91082
N         34.29088       48.51969       15.40316
O         32.35243       48.01210       16.36295
H         31.16510       45.80720       16.36453
H         33.63614       44.27427       16.90685
H         33.45794       45.73925       14.88242
H         34.84173       46.05633       15.95195
H         35.17596       48.20861       14.97855
H         34.07915       49.52901       15.42584
N         32.46875       46.12224       19.29051
C         32.70853       46.73447       20.58715
C         32.43097       48.23007       20.58696
O         32.62446       48.85124       21.61910
H         31.49914       45.96464       19.02247
H         33.76471       46.59334       20.90190
H         32.06833       46.23729       21.34898
N         32.05536       48.88835       19.44551
C         31.95908       50.34747       19.37822
C         30.73301       50.81686       18.62464
O         30.02386       50.01949       18.03821
C         33.18760       50.91400       18.64995
C         34.45820       50.58943       19.36067
C         34.98679       51.48090       20.30283
C         35.12568       49.39038       19.08009
C         36.17630       51.17116       20.96214
C         36.31179       49.07975       19.74015
C         36.84340       49.96779       20.68127
O         37.99527       49.66029       21.30723
H         31.93851       48.35897       18.58291
H         31.91270       50.77781       20.39964
H         33.10699       52.01954       18.55662
H         33.25109       50.49678       17.62545
H         34.47596       52.41129       20.52370
H         34.72197       48.70110       18.34979
H         36.57814       51.86480       21.68880
H         36.81794       48.15006       19.51706
H         38.39725       50.26152       21.94943
N         30.43571       52.15176       18.62913
C         29.28280       52.71839       17.93826
C         29.68911       54.04529       17.30500
O         30.28525       54.86137       17.99057
C         28.13072       53.00005       18.94169
C         27.95556       51.83749       19.95171
C         26.83977       53.29424       18.14774
C         26.81239       52.06039       20.93734
H         30.99947       52.77252       19.22445
H         28.89587       51.99754       17.18498
H         28.38654       53.89456       19.55271
H         28.88712       51.78601       20.55836
H         27.81443       50.86001       19.44253
H         26.98314       54.16824       17.47919
H         26.55419       52.41770       17.52531
H         25.99913       53.54495       18.82245
H         26.86879       53.08025       21.37465
H         25.83603       51.92337       20.42927
H         26.88240       51.31697       21.75832
N         29.33818       54.35360       16.02465
C         29.62658       55.66042       15.42998
C         28.33532       56.35004       14.99587
O         27.26857       55.79680       15.18562
C         30.61240       55.47565       14.27276
O         30.05038       54.69969       13.24793
H         28.82388       53.66478       15.46710
H         30.11959       56.32980       16.16672
H         31.52513       54.96564       14.65089
H         30.95002       56.46821       13.89368
H         29.88007       55.30873       12.48281
N         28.37434       57.58398       14.41150
C         27.17559       58.32245       13.99745
C         26.29138       57.55956       13.02692
O         25.09051       57.50594       13.25593
C         27.57389       59.66030       13.36702
H         29.29311       58.02792       14.27288
H         26.55908       58.55876       14.89394
H         28.27027       59.50395       12.51615
H         26.67062       60.19374       12.99795
H         28.06674       60.30165       14.12810
N         26.79341       56.96621       11.90868
C         25.93769       56.23648       10.97102
C         25.21563       55.08054       11.64506
O         24.03432       54.88732       11.39965
C         26.74600       55.71761        9.78272
H         27.80811       57.02888       11.72505
H         25.17689       56.93371       10.55558
H         26.06202       55.23196        9.05223
H         27.24508       56.56907        9.27277
H         27.51193       54.98304       10.10816
N         25.86503       54.29701       12.54680
C         25.19902       53.21331       13.27500
C         24.06357       53.75240       14.12083
O         23.05338       53.07969       14.27103
C         26.19801       52.49904       14.18440
C         27.32900       51.89895       13.34487
C         28.37986       51.36316       14.21456
O         28.04122       50.50637       15.16204
O         29.54661       51.65131       14.03125
H         26.85163       54.51368       12.75305
H         24.80265       52.46568       12.55071
H         25.68622       51.67847       14.74494
H         26.59741       53.21812       14.92850
H         27.81317       52.62234       12.66649
H         26.92202       51.06760       12.73463
N         24.16208       54.99097       14.67598
C         23.09963       55.63399       15.41144
H         22.19817       54.99641       15.49957
H         23.46798       55.89973       16.42324
H         22.82030       56.56958       14.87959
H         25.02355       55.52324       14.54211
Ca        29.35187       48.85070       15.61057
O         31.97781       51.51064       15.80963
H         31.45427       52.11113       15.23552
H         32.64604       52.12489       16.19824
O         32.11604       49.40743       13.66112
H         32.21063       50.09893       12.96165
H         32.60603       48.63018       13.29752
O         29.40842       48.96850       12.67696
H         29.48859       48.15836       12.11872
H         29.95343       49.64588       12.20678

Ca 1.70



