%chk=loop1.cluster3.chk
%nprocshared=48
%mem=10GB
%nosave
#b3lyp/svp scf=(tight,noincore) Test 
#IOP(5/87=12) Density=Current Pop=(MK,readradii) iop(6/33=2) iop(6/42=6)

loop1.cluster3 

   0  1 
C         57.49200       38.77074       29.51878
C         58.54604       37.91250       28.90109
O         58.37044       36.70831       28.81205
H         56.59117       38.17147       29.76593
H         57.89933       39.22238       30.44695
H         57.20978       39.57766       28.80983
N         59.68087       38.48363       28.42632
C         60.75195       37.70807       27.82384
C         61.53723       37.04690       28.94211
O         62.41538       37.68009       29.51556
C         61.56852       38.65046       26.92396
C         62.80591       38.07699       26.31073
O         63.80650       38.76195       26.33603
O         62.92397       36.78508       25.94274
H         59.77359       39.51024       28.48436
H         60.32419       36.94828       27.13979
H         61.89700       39.52473       27.53355
H         60.91479       39.05728       26.12749
N         61.21301       35.78473       29.35850
C         61.82890       35.14816       30.51764
C         62.97652       34.23039       30.13470
O         63.67053       33.76157       31.02284
C         60.78360       34.38265       31.34319
C         59.67972       35.29085       31.89966
C         58.80010       34.49655       32.87121
C         57.62762       35.33265       33.39665
N         57.02640       34.69581       34.56862
H         60.47885       35.26717       28.85441
H         62.28502       35.92690       31.17048
H         61.30451       33.89794       32.19702
H         60.32074       33.58744       30.71609
H         59.07659       35.71149       31.07004
H         60.14049       36.13284       32.46468
H         59.45064       34.19723       33.72172
H         58.39940       33.57568       32.39167
H         56.86911       35.45276       32.58889
H         57.98358       36.34215       33.69443
H         56.24006       35.28911       34.91791
H         56.66792       33.74248       34.33330
H         57.74341       34.62281       35.32829
N         63.28685       34.01298       28.82546
C         64.54796       33.40753       28.41258
C         65.48019       34.50354       27.88961
O         66.63653       34.21143       27.60549
C         64.28197       32.23427       27.44855
C         63.59306       32.60188       26.16577
O         63.21530       31.71910       25.41480
O         63.40131       33.88666       25.82509
H         62.68415       34.40478       28.09460
H         65.07369       32.97376       29.29176
H         63.63165       31.51347       27.99134
H         65.23035       31.71481       27.19185
N         65.07587       35.81520       27.85049
C         65.98151       36.92514       27.63401
C         66.51319       37.07799       26.22784
O         67.39748       37.89764       26.03457
H         64.11349       36.06553       28.10763
H         66.81826       36.82830       28.35378
H         65.45662       37.87045       27.88679
N         66.01360       36.35274       25.18730
C         66.55753       36.45139       23.83069
C         66.26839       37.78901       23.11282
O         66.64330       37.92010       21.95458
C         66.10858       35.21350       23.01089
C         64.64690       35.12352       22.70148
O         63.81434       36.10275       23.06198
O         64.20937       34.14827       22.11435
H         65.26903       35.66774       25.36976
H         67.66076       36.33551       23.90411
H         66.37801       34.30784       23.59846
H         66.66442       35.18016       22.05129
N         65.65210       38.83767       23.74304
C         65.39633       40.12492       23.11113
C         64.11001       40.16825       22.31204
O         63.86355       41.16969       21.65811
H         65.42298       38.75979       24.72996
H         66.27315       40.42995       22.50114
H         65.26602       40.89656       23.90219
N         63.21880       39.13744       22.35264
C         61.94400       39.16062       21.63835
C         60.82585       38.54870       22.47719
O         61.08484       37.97053       23.51655
C         62.07530       38.47892       20.24657
C         62.94776       39.28205       19.27991
O         62.56926       37.16748       20.34020
H         63.42103       38.34139       22.95733
H         61.62687       40.21453       21.49205
H         61.06471       38.43346       19.78746
H         63.46654       37.20259       20.76248
H         64.00172       39.30950       19.62591
H         62.92014       38.80886       18.27544
H         62.55947       40.31863       19.19224
N         59.52883       38.72387       22.09625
C         58.38624       38.22355       22.85725
C         57.52158       37.35054       21.96926
O         57.17925       37.74017       20.86298
C         57.61416       39.41051       23.51994
C         58.34377       39.77469       24.84420
C         56.12952       39.07374       23.77747
C         57.75472       40.97386       25.58185
H         59.33640       39.28161       21.25161
H         58.70993       37.56851       23.69278
H         57.62034       40.28765       22.83588
H         59.40140       40.01370       24.60942
H         58.33027       38.90290       25.54108
H         55.60607       38.95248       22.80446
H         56.02295       38.14213       24.37002
H         55.59952       39.89943       24.28949
H         57.73225       41.85491       24.90900
H         56.73402       40.75791       25.95699
H         58.38410       41.20652       26.46677
N         57.06127       36.16936       22.47154
C         56.21196       35.24916       21.74259
C         54.80853       35.24812       22.31095
O         54.52550       35.88458       23.31022
C         56.78257       33.80328       21.84708
C         58.14158       33.67449       21.16829
O         56.87832       33.44222       23.20312
H         57.28195       35.93190       23.43952
H         56.12498       35.55616       20.67814
H         56.09474       33.09396       21.33800
H         57.40357       32.60461       23.28307
H         58.45955       32.60873       21.19194
H         58.07090       33.99691       20.11024
H         58.88815       34.28478       21.70970
N         53.87802       34.50831       21.66651
C         52.50721       34.29221       22.11723
C         52.48745       33.56797       23.45960
O         51.68910       33.92508       24.31832
C         51.77271       33.49872       21.00059
C         51.61784       34.41037       19.75948
O         52.50919       32.34195       20.67886
H         54.18095       34.04868       20.79777
H         51.96930       35.25860       22.24092
H         50.75749       33.19969       21.34149
H         52.00123       31.84632       19.98584
H         50.92998       35.24935       20.00036
H         52.58306       34.85576       19.43415
H         51.19870       33.85120       18.89915
N         53.35241       32.54827       23.71826
C         53.38803       31.83007       24.99280
C         53.85157       32.71238       26.13440
O         53.22795       32.71968       27.18358
C         54.28744       30.58594       24.90624
C         53.76592       29.64889       23.80774
C         54.22219       28.20709       24.00365
C         53.82630       27.38352       22.77322
N         54.10172       25.96452       22.97203
H         54.01592       32.27535       22.97636
H         52.37150       31.44500       25.23508
H         54.23285       30.07522       25.89254
H         55.35477       30.84056       24.70624
H         54.09418       30.04032       22.82079
H         52.65282       29.62428       23.81939
H         53.71284       27.80995       24.91240
H         55.32040       28.14753       24.15431
H         54.40179       27.75657       21.89571
H         52.74137       27.51409       22.56176
H         53.80412       25.44332       22.11595
H         55.12367       25.81283       23.13054
H         53.55514       25.60926       23.79013
N         54.94521       33.50176       25.97102
C         55.44187       34.41980       26.99453
C         54.32241       35.31854       27.46691
O         54.05878       35.35101       28.66309
C         56.66460       35.17658       26.43593
C         57.84197       34.17841       26.38100
C         59.09852       34.72778       25.82353
O         59.10856       35.22671       24.71438
O         60.25010       34.55528       26.49781
H         55.40532       33.48843       25.05578
H         55.78526       33.85323       27.88910
H         56.93057       36.03346       27.07600
H         56.41987       35.59327       25.43677
H         57.57426       33.30551       25.75728
H         58.06524       33.81734       27.40847
N         53.55308       36.00420       26.58461
C         52.35489       36.69229       27.00791
H         51.61591       35.94347       27.37355
H         52.58219       37.41126       27.82171
H         51.90436       37.23163       26.14996
H         53.78119       35.97943       25.58405
Ca        61.68073       35.58070       24.52249
O         61.35288       34.91331       21.78126
H         61.66369       34.27918       21.08858
H         61.01390       35.69391       21.28275
O         60.90677       32.78339       23.37054
H         61.49284       32.20312       22.82261
H         61.17260       32.60555       24.30516

Ca 1.70



