%chk=loop4.cluster59.chk
%nprocshared=48
%mem=10GB
%nosave
#b3lyp/svp scf=(tight,noincore) Test 
#IOP(5/87=12) Density=Current Pop=(MK,readradii) iop(6/33=2) iop(6/42=6)

loop4.cluster59 

   -3  1 
C         62.81813       21.44499       61.05562
C         63.37707       21.13517       62.41582
O         63.69603       22.05013       63.16066
H         61.90296       22.06814       61.13799
H         63.58526       21.98437       60.46493
H         62.55164       20.51405       60.50847
N         63.51982       19.83971       62.80400
C         64.06124       19.40927       64.08781
C         63.25183       19.94906       65.25042
O         63.80720       20.27837       66.29059
C         65.56710       19.69771       64.23869
C         66.36351       19.27404       63.04381
O         67.28730       20.11229       62.54182
O         66.20960       18.16815       62.54865
H         63.20987       19.09811       62.15641
H         63.94738       18.30138       64.10641
H         65.93462       19.13042       65.11990
H         65.75695       20.77882       64.41644
N         61.90063       20.01909       65.13735
C         61.02363       20.38556       66.23596
C         60.65236       19.10872       66.94894
O         60.35796       18.12937       66.27804
C         59.79445       21.15865       65.68275
C         60.24706       22.61193       65.39745
C         58.58000       21.10943       66.63325
C         59.15316       23.49983       64.82193
H         61.46580       19.68341       64.26523
H         61.57190       21.04324       66.93416
H         59.45073       20.66638       64.74563
H         61.09586       22.59241       64.67965
H         60.60729       23.08238       66.34152
H         58.26976       20.05648       66.80913
H         58.79632       21.59556       67.60294
H         57.69873       21.59143       66.16591
H         58.75742       23.05477       63.88679
H         58.33272       23.63731       65.55585
H         59.57746       24.50199       64.60575
N         60.67812       18.99276       68.30760
C         60.85129       20.09466       69.26049
C         62.24233       20.08230       69.85906
O         62.92166       21.10044       69.81192
C         59.70333       20.10802       70.30858
C         59.38756       18.85717       71.10445
O         58.36147       18.88246       71.97335
O         60.00397       17.81848       70.95462
H         60.52565       18.05044       68.68646
H         60.74430       21.09026       68.78710
H         58.76817       20.36018       69.76477
H         59.90301       20.93188       71.02909
N         62.74634       18.95081       70.41121
C         64.06834       18.85906       70.98557
C         64.25805       19.77815       72.15895
O         63.40763       19.83559       73.03675
H         62.19131       18.09269       70.39262
H         64.83840       19.04946       70.20692
H         64.20396       17.82338       71.35672
N         65.40740       20.49769       72.24901
C         65.75477       21.30812       73.40360
C         65.37982       22.76328       73.16763
O         65.21511       23.49192       74.13739
C         67.25069       21.07415       73.67830
C         67.78673       21.70564       74.91313
O         68.80301       22.37664       74.84662
O         67.22157       21.45005       76.10920
H         66.11208       20.39095       71.50359
H         65.17595       20.94804       74.28702
H         67.84399       21.42287       72.80233
H         67.40690       19.98102       73.79076
N         65.12714       23.23374       71.90728
C         64.59565       24.56345       71.66125
C         65.54601       25.69460       71.99217
O         65.08082       26.81054       72.16643
H         65.24942       22.61208       71.09511
H         63.66503       24.67400       72.25872
H         64.31184       24.66477       70.59176
N         66.89701       25.50110       72.02150
C         67.84970       26.55199       72.37900
C         67.76153       27.79231       71.48517
O         68.11538       28.87720       71.93238
C         67.77562       26.85014       73.89850
C         68.07523       25.56686       74.70740
C         68.11383       25.76569       76.20469
N         68.28411       24.70189       77.02502
O         67.99385       26.88214       76.68485
H         67.27844       24.57119       71.79642
H         68.87346       26.15368       72.20806
H         66.76963       27.23836       74.17415
H         68.53311       27.62007       74.16099
H         69.05782       25.15291       74.39057
H         67.29552       24.81552       74.47994
H         68.37027       23.75568       76.64694
H         68.31617       24.81986       78.04638
N         67.35974       27.69509       70.18241
C         67.39432       28.82948       69.25942
C         68.82175       29.06541       68.79161
O         69.42536       28.17404       68.20773
C         66.45595       28.59216       68.04068
C         64.98725       28.58529       68.49760
C         66.62597       29.68114       66.96059
H         67.04435       26.78000       69.82507
H         67.00622       29.74118       69.77032
H         66.70133       27.61101       67.57737
H         64.81590       27.83534       69.29641
H         64.70177       29.58744       68.88974
H         64.32059       28.34482       67.64254
H         66.42166       30.68952       67.38071
H         67.65634       29.67504       66.54662
H         65.93529       29.49712       66.11102
N         69.40141       30.28079       68.98302
C         70.73426       30.62595       68.49735
C         70.81295       30.60704       66.97008
O         70.06948       31.32737       66.31286
C         71.12191       32.01160       69.05642
C         72.40555       32.55670       68.48098
N         73.55150       31.83923       68.52290
O         72.40267       33.65978       67.95549
H         68.86377       30.99606       69.49844
H         71.46323       29.89418       68.91182
H         71.21638       31.91897       70.16143
H         70.30906       32.74270       68.84577
H         73.57232       30.89866       68.94057
H         74.41461       32.22186       68.10990
N         71.72489       29.80424       66.34542
C         71.91364       29.74504       64.89105
C         72.71499       28.49165       64.48301
O         73.30361       27.82478       65.32936
C         72.61528       31.06645       64.39561
C         73.26163       30.95314       63.02453
C         72.52571       31.13202       61.83786
C         74.60797       30.54563       62.94088
C         73.12351       30.87023       60.59472
C         75.19427       30.28018       61.70422
C         74.44926       30.42415       60.52688
O         74.98859       30.10184       59.33231
H         72.31488       29.20636       66.94621
H         70.92147       29.61253       64.40623
H         73.44273       31.27253       65.10945
H         71.94952       31.95429       64.45905
H         71.48724       31.43278       61.87622
H         75.18684       30.38068       63.84116
H         72.54720       30.97704       59.68469
H         76.21694       29.92419       61.66485
H         75.86816       29.70035       59.26385
N         72.78420       28.13129       63.16711
C         73.62659       27.06015       62.64991
C         73.92316       27.28788       61.15478
O         75.09302       27.46092       60.84545
C         73.06533       25.65805       62.99171
C         73.85752       24.51956       62.32687
C         73.19586       23.20357       62.61636
O         73.14757       22.73508       63.87720
O         72.68089       22.56376       61.71239
H         72.26764       28.70351       62.48649
H         74.62114       27.13827       63.14942
H         72.01521       25.56544       62.66601
H         73.06492       25.51974       64.09389
H         74.91289       24.50141       62.67147
H         73.87114       24.67092       61.22698
N         72.98690       27.29047       60.14857
C         71.56756       27.00053       60.31371
C         70.65106       27.99837       59.62937
O         71.09073       28.78491       58.80110
C         71.26477       25.59690       59.74099
C         71.61281       25.46899       58.24186
C         71.17383       24.14871       57.69324
O         69.86304       23.85005       57.64664
O         71.99251       23.36190       57.24556
H         73.33450       27.43795       59.18803
H         71.29065       27.02755       61.37510
H         70.19030       25.37104       59.90216
H         71.84376       24.83665       60.29770
H         72.70942       25.58091       58.09811
H         71.09815       26.25386       57.64985
N         69.32027       27.97446       59.92646
C         68.34282       28.78330       59.23387
H         67.36514       28.70583       59.75809
H         68.65059       29.84808       59.20898
H         68.20691       28.39729       58.20054
H         68.98753       27.35048       60.67743
Ca        67.05638       19.94577       59.89676
O         69.55948       21.23170       59.54359
H         69.40720       22.17908       59.31421
H         70.53306       21.09348       59.43639
O         66.84696       17.34375       59.25266
H         66.14685       16.65033       59.18232
H         67.70691       16.86084       59.17364
O         69.58047       18.60221       60.80914
H         69.91749       18.46714       61.72956
H         70.38385       18.53573       60.23426
O         66.51977       22.65904       60.54629
H         66.49795       22.98128       61.48135
H         66.74356       23.45700       60.00528
O         68.85274       19.01230       57.76706
H         69.60989       19.58330       57.48524
H         68.79446       18.31089       57.07227
O         66.62187       21.54776       57.76908
H         65.76071       21.52930       57.28328
H         67.05667       22.39580       57.50563

Ca 1.70



