%chk=loop3.cluster91.chk
%nprocshared=48
%mem=10GB
%nosave
#b3lyp/svp scf=(tight,noincore) Test 
#IOP(5/87=12) Density=Current Pop=(MK,readradii) iop(6/33=2) iop(6/42=6)

loop3.cluster91 

   0  1 
C         92.47298       74.84558       23.08466
C         93.90197       74.60952       22.71641
O         94.31362       73.46590       22.59043
H         91.90281       73.89356       23.09435
H         92.41867       75.32046       24.08697
H         92.02453       75.52858       22.33344
N         94.71772       75.67534       22.49816
C         96.10544       75.53309       22.08631
C         97.01280       75.36968       23.27989
O         97.54960       74.28578       23.43982
C         96.54654       76.61612       21.07141
C         96.29953       78.08006       21.38326
O         95.66596       78.48439       22.49906
O         96.63736       78.91889       20.56553
H         94.30503       76.61127       22.57312
H         96.20529       74.58009       21.51184
H         95.99935       76.41408       20.12673
H         97.63175       76.47104       20.86905
N         97.22682       76.36826       24.18368
C         98.10710       76.16235       25.31756
C         99.52594       76.31156       24.83224
O         99.92510       77.40332       24.44944
C         97.73230       77.08876       26.48164
C         98.25638       76.55688       27.82818
C         97.92208       77.47173       29.01951
C         96.42555       77.82077       29.13226
N         96.16489       78.66515       30.29645
H         96.75689       77.26976       24.08391
H         97.93114       75.13377       25.68425
H         96.62312       77.07423       26.54506
H         98.06092       78.13035       26.27683
H         99.35875       76.42540       27.78581
H         97.79717       75.55813       28.00840
H         98.50084       78.41377       28.91843
H         98.25273       76.95600       29.94858
H         95.81627       76.89201       29.20262
H         96.11160       78.38437       28.22835
H         96.32560       78.12454       31.17643
H         96.78360       79.50847       30.27741
H         95.16865       78.98267       30.26765
N        100.31199       75.21104       24.73478
C        101.62535       75.21205       24.11124
C        101.68062       74.26084       22.91662
O        102.73250       74.16171       22.30003
C        102.67820       74.91199       25.19548
C        102.51712       73.60893       25.93489
O        101.87602       72.68938       25.45807
O        103.11921       73.44685       27.12753
H         99.94481       74.32128       25.08924
H        101.86976       76.21911       23.70664
H        102.57284       75.72852       25.94207
H        103.70865       74.96351       24.78735
N        100.59283       73.52717       22.52232
C        100.64695       72.62930       21.38748
C        100.54620       73.38275       20.07245
O        100.25186       74.57054       20.09068
H         99.71786       73.56570       23.04741
H         99.78169       71.93089       21.42293
H        101.56949       72.02667       21.48436
N        100.70640       72.76372       18.86535
C        101.10255       71.36829       18.70324
C         99.92292       70.57733       18.17796
O         99.19056       71.10265       17.35262
C        102.32593       71.27854       17.77394
C        102.83095       69.86005       17.69480
N        103.81120       69.43643       18.52765
O        102.29692       69.06715       16.93330
H        100.53776       73.31671       18.00946
H        101.41365       70.95176       19.66906
H        103.12793       71.91977       18.20087
H        102.10156       71.66293       16.75478
H        104.23379       70.08129       19.21162
H        104.11295       68.45091       18.51845
N         99.61638       69.32415       18.62805
C        100.46980       68.48855       19.46588
C         99.86167       68.21430       20.79864
O         98.91786       68.89278       21.18005
H         98.73615       68.89889       18.29594
H        101.48449       68.87097       19.64960
H        100.59191       67.52566       18.92593
N        100.32569       67.17797       21.55286
C         99.70201       66.78241       22.80449
C        100.69293       66.55175       23.92082
O        101.89934       66.58451       23.70526
C         98.87138       65.50416       22.55989
C         97.67552       65.80509       21.69908
C         96.69749       66.70147       22.16374
C         97.51613       65.19749       20.44607
C         95.58241       66.99635       21.38358
C         96.39270       65.48993       19.66630
C         95.42330       66.39249       20.13398
O         94.33626       66.68075       19.39195
H        101.07381       66.57915       21.16314
H         99.03518       67.58107       23.17366
H         98.46554       65.09450       23.50310
H         99.52677       64.72553       22.10713
H         96.80159       67.17030       23.13304
H         98.25792       64.50092       20.07547
H         94.84059       67.69224       21.75399
H         96.27510       65.01584       18.70089
H         94.19005       66.27307       18.52711
N        100.21105       66.29172       25.16752
C        101.03409       65.95377       26.32246
C        100.76819       64.51556       26.76197
O        101.39761       64.04895       27.70161
C        100.82839       67.01565       27.44960
C         99.35667       67.13167       27.93543
C        101.78308       66.74971       28.62894
C         99.12070       68.28137       28.91209
H         99.18656       66.29274       25.28975
H        102.10825       65.98864       26.03692
H        101.12263       67.98693       26.99384
H         99.03077       66.18701       28.41455
H         98.69636       67.33430       27.07600
H        102.80738       66.53687       28.25559
H        101.84620       67.63185       29.29462
H        101.43634       65.88930       29.23900
H         98.03884       68.33737       29.16086
H         99.68041       68.12499       29.85547
H         99.42508       69.24289       28.44715
N         99.90306       63.71630       26.07458
C         99.70088       62.32182       26.41079
C         98.77704       62.13670       27.60949
O         98.55155       61.00045       27.99024
C         99.07557       61.60806       25.19585
O         99.91115       61.77018       24.08080
H         99.42938       64.07825       25.23909
H        100.68912       61.84411       26.59912
H         98.07709       62.05900       24.98305
H         98.95720       60.52425       25.41069
H         99.43792       61.35577       23.31391
N         98.11371       63.19747       28.17604
C         96.99569       62.96374       29.08554
C         96.06061       64.15434       29.19049
O         96.48712       65.26425       29.46793
C         97.39231       62.52248       30.49579
H         98.27052       64.14570       27.82147
H         96.41207       62.12375       28.65521
H         98.08258       61.65733       30.47817
H         97.83340       63.35233       31.08548
H         96.46048       62.19294       31.01481
N         94.72689       63.92687       29.04762
C         93.67192       64.88404       29.33457
C         93.75450       66.18983       28.57014
O         93.54327       67.24641       29.15668
C         93.51162       65.05608       30.84823
H         94.41931       62.97059       28.82275
H         92.72930       64.40154       28.99210
H         92.61372       65.67226       31.06948
H         93.35946       64.05781       31.31450
H         94.40788       65.52915       31.29857
N         93.91975       66.17939       27.22136
C         93.63968       67.33636       26.38109
C         92.40397       67.05745       25.52434
O         91.99097       67.93519       24.78114
C         94.86509       67.69091       25.52305
C         96.08646       68.14271       26.34131
C         95.90683       69.47887       27.01634
O         96.59778       70.42568       26.68025
O         95.02474       69.63025       28.02144
H         94.14348       65.28264       26.75708
H         93.36343       68.22332       26.98659
H         94.61599       68.50276       24.80857
H         95.14270       66.79269       24.93133
H         96.93359       68.22938       25.63150
H         96.35502       67.37987       27.09940
N         91.70851       65.88201       25.64808
C         90.46046       65.64292       24.96209
H         89.75795       66.48000       25.15672
H         90.62396       65.51047       23.87349
H         90.00098       64.71654       25.37200
H         92.02275       65.14896       26.29356
Ca        96.12438       71.99143       24.17183
O         98.62698       72.20463       25.42885
H         99.59593       72.05518       25.33771
H         98.50069       72.39322       26.39057
O         94.11669       70.39723       23.20037
H         93.86692       70.05520       22.30788
H         93.25968       70.64058       23.62994
O         97.71380       69.81740       23.88260
H         97.46506       69.52839       22.97134
H         98.68696       69.66318       23.96177
O         96.25665       73.58561       26.41502
H         96.26243       73.04149       27.24034
H         95.62582       74.32555       26.58944
O         93.91331       72.07364       25.91503
H         93.04648       72.18602       25.45383
H         93.76202       71.34043       26.55965
O         96.96717       71.77108       21.48051
H         96.39933       71.04888       21.11223
H         97.54728       72.04466       20.72840

Ca 1.70



