%chk=loop1.cluster45.chk
%nprocshared=48
%mem=10GB
%nosave
#b3lyp/svp scf=(tight,noincore) Test 
#IOP(5/87=12) Density=Current Pop=(MK,readradii) iop(6/33=2) iop(6/42=6)

loop1.cluster45 

   0  1 
C         37.42890       86.96778      121.40936
C         37.72987       86.46510      122.79282
O         38.33022       85.40992      122.93549
H         36.79195       87.87889      121.44120
H         38.38888       87.24326      120.92653
H         36.90817       86.19970      120.80194
N         37.35200       87.20269      123.86956
C         37.72857       86.88226      125.24373
C         36.60952       86.20801      126.02004
O         36.72748       86.10378      127.23353
C         38.21077       88.16755      125.97193
C         37.16481       89.23659      126.16020
O         36.79053       89.58088      127.40643
O         36.69666       89.83296      125.20306
H         36.83411       88.07131      123.69140
H         38.59341       86.18360      125.26141
H         39.07372       88.61029      125.43393
H         38.56166       87.87565      126.98540
N         35.48298       85.74627      125.40046
C         34.33247       85.25234      126.14814
C         33.88846       83.88958      125.62001
O         33.46419       83.85443      124.47260
C         33.19799       86.29219      125.95748
C         33.60242       87.68423      126.49572
C         32.45152       88.69249      126.38162
C         32.79153       90.08678      126.94593
N         33.88622       90.74830      126.22640
H         35.39717       85.82026      124.37565
H         34.55459       85.19207      127.22675
H         32.28418       85.94072      126.47921
H         32.96094       86.39366      124.87078
H         34.47374       88.06536      125.92085
H         33.89138       87.58795      127.56264
H         31.58323       88.30140      126.95393
H         32.14599       88.80150      125.31763
H         33.03869       90.01924      128.03062
H         31.87574       90.70968      126.85495
H         34.00515       90.37741      125.25598
H         33.70650       91.77651      126.17017
H         34.76809       90.62780      126.76316
N         33.92394       82.70473      126.32336
C         34.47914       82.40095      127.65367
C         33.70822       82.99646      128.81861
O         32.99200       83.96419      128.61468
C         35.99021       82.67238      127.72992
C         36.67339       81.99762      126.59149
O         37.31542       82.65399      125.79001
O         36.54138       80.67072      126.42644
H         33.56349       81.88000      125.81773
H         34.35012       81.30446      127.75431
H         36.41493       82.28180      128.67375
H         36.20966       83.75141      127.69297
N         33.74106       82.46313      130.08487
C         34.39155       81.21482      130.48852
C         35.74683       81.46811      131.12309
O         35.85578       82.41813      131.88416
H         33.15838       82.92203      130.80233
H         34.34704       80.43182      129.71058
H         33.76050       80.78741      131.29759
N         36.84592       80.68671      130.88427
C         36.81777       79.42262      130.15328
C         38.23307       79.04339      129.76113
O         38.91432       78.32224      130.48197
C         36.11485       78.34696      131.01676
C         35.95091       77.01652      130.33810
O         35.35640       76.93792      129.27618
O         36.38881       75.89455      130.94151
H         37.74315       80.98187      131.30376
H         36.26900       79.55939      129.19668
H         35.09860       78.69939      131.27265
H         36.67617       78.20736      131.96670
N         38.76348       79.59121      128.64028
C         40.10394       79.31640      128.16651
C         40.51202       80.28898      127.08489
O         39.87611       81.32799      126.91982
H         38.16802       80.22721      128.09791
H         40.12796       78.27410      127.77464
H         40.84525       79.40993      128.98823
N         41.56153       80.00068      126.27461
C         41.96059       80.86555      125.16986
C         41.35840       80.36206      123.88799
O         40.81653       79.26497      123.88037
C         43.50526       80.98881      125.07954
C         44.15250       79.64389      124.70795
O         44.07741       81.44737      126.28420
H         42.00607       79.07710      126.38400
H         41.52867       81.88399      125.32081
H         43.75619       81.71677      124.27729
H         43.37653       81.83955      126.86701
H         43.80030       79.30122      123.71119
H         45.25356       79.75235      124.66845
H         43.92436       78.85207      125.44809
N         41.38571       81.11641      122.75891
C         40.61292       80.76606      121.57570
C         41.48611       80.22616      120.47252
O         42.29534       80.95308      119.91236
C         39.69336       81.94807      121.11635
C         38.81169       81.51309      119.91318
C         40.47937       83.23882      120.79101
C         37.71026       82.51674      119.56690
H         41.92207       81.99569      122.77112
H         39.91191       79.94296      121.83450
H         39.01841       82.18249      121.96620
H         38.30103       80.55856      120.16363
H         39.44487       81.34227      119.01381
H         39.79627       84.07344      120.54773
H         41.06368       83.59470      121.65973
H         41.16292       83.09350      119.93206
H         37.09982       82.11998      118.72856
H         37.04858       82.66890      120.44596
H         38.12506       83.49186      119.24434
N         41.31956       78.93639      120.07341
C         41.88842       78.39392      118.85204
C         40.76930       77.90326      117.92356
O         41.06507       77.33860      116.88168
C         42.92095       77.28704      119.19892
C         42.31756       76.06262      119.89721
O         43.92563       77.80755      120.03461
H         40.69663       78.32170      120.62545
H         42.44170       79.17948      118.29292
H         43.38689       76.92961      118.25351
H         44.27420       78.63603      119.61324
H         41.87791       76.33431      120.87916
H         41.54311       75.58143      119.26690
H         43.12191       75.31718      120.07973
N         39.45140       78.09687      118.25427
C         38.30480       77.58164      117.52018
C         38.24849       76.06217      117.58430
O         39.23141       75.41084      117.91028
C         38.16668       78.13038      116.07253
C         38.27378       79.66232      116.03971
O         36.91629       77.74260      115.55339
H         39.21460       78.62624      119.10067
H         37.41318       77.94628      118.08181
H         38.97242       77.69730      115.44195
H         36.81177       78.14205      114.65141
H         38.19330       80.01835      114.98974
H         37.45853       80.12488      116.63564
H         39.25484       79.99654      116.43427
N         37.06452       75.44756      117.34031
C         36.85776       74.01334      117.33425
C         35.96627       73.42473      118.42746
O         36.09889       72.22091      118.60797
C         36.21031       73.62743      115.98769
C         37.15642       73.67189      114.79352
C         38.15420       72.50669      114.85707
C         38.94811       72.33744      113.56084
N         39.69432       73.54436      113.20662
H         36.28325       76.04208      117.09707
H         37.82813       73.49170      117.47732
H         35.36918       74.32472      115.79968
H         35.76862       72.60748      116.02176
H         37.67327       74.65515      114.73483
H         36.53308       73.54372      113.88341
H         37.59909       71.55534      115.02113
H         38.85665       72.64347      115.70532
H         38.25877       72.06903      112.72849
H         39.65133       71.48945      113.71126
H         39.04399       74.25586      112.80031
H         40.17771       73.94229      114.04413
H         40.40780       73.29884      112.48402
N         34.98619       74.05074      119.15118
C         34.57066       75.44668      119.21084
C         34.07611       76.06231      117.91160
O         34.32920       77.23480      117.66201
C         35.54958       76.26892      120.07932
C         34.93837       77.62129      120.47848
C         35.17693       77.91203      121.92052
O         36.35461       78.35442      122.37064
O         34.27695       77.71564      122.72181
H         34.45254       73.42931      119.78228
H         33.63987       75.41142      119.82307
H         36.57023       76.39471      119.67347
H         35.67190       75.64817      120.99651
H         33.83385       77.54165      120.40443
H         35.23158       78.45428      119.80315
N         33.36021       75.32315      117.02475
C         32.89279       75.89051      115.77745
H         32.12266       76.66463      115.97940
H         33.74027       76.35106      115.22280
H         32.45175       75.09452      115.14280
H         33.17919       74.32754      117.21864
Ca        36.24102       78.76398      124.56923
O         38.01963       80.58533      123.60302
H         38.51206       79.73268      123.62078
H         38.34051       81.03980      124.41485
O         33.65743       78.77755      125.93586
H         33.10875       79.40572      126.46804
H         33.11978       78.60378      125.12282
O         38.65063       77.61492      125.01153
H         38.95661       76.94436      125.66690
H         39.27345       77.52107      124.25244
O         34.45333       80.79485      123.51529
H         33.51997       81.11078      123.42354
H         35.01095       81.55989      123.22636
O         36.29887       76.60454      126.33935
H         36.98908       75.89967      126.41157
H         36.51405       77.23981      127.06739

Ca 1.70



