%chk=loop4.cluster65.chk
%nprocshared=48
%mem=10GB
%nosave
#b3lyp/svp scf=(tight,noincore) Test 
#IOP(5/87=12) Density=Current Pop=(MK,readradii) iop(6/33=2) iop(6/42=6)

loop4.cluster65 

   -3  1 
C         79.90032       48.56700       80.89270
C         80.64758       47.26168       80.92816
O         81.21927       46.85769       79.92849
H         78.85868       48.41101       81.24640
H         80.39461       49.29268       81.57427
H         79.87593       48.99948       79.87087
N         80.66624       46.54909       82.08550
C         81.42334       45.31908       82.32352
C         82.89675       45.61536       82.38992
O         83.71582       44.83162       81.92213
C         81.10524       44.14830       81.37758
C         79.65091       43.83591       81.24694
O         78.71929       44.59862       81.85987
O         79.31416       42.91349       80.52825
H         80.13347       46.92539       82.88513
H         81.14997       44.99569       83.35296
H         81.62974       43.24121       81.75077
H         81.48920       44.37366       80.36133
N         83.29974       46.72514       83.05137
C         84.67464       47.02893       83.35797
C         84.75502       46.99283       84.87283
O         84.01209       47.72886       85.50964
C         85.04586       48.42324       82.77788
C         84.94583       48.47275       81.22609
C         86.42116       48.89528       83.27653
C         85.81619       47.46805       80.46085
H         82.58158       47.36951       83.41902
H         85.35451       46.27961       82.91787
H         84.31352       49.17031       83.15859
H         85.21791       49.49623       80.88536
H         83.89059       48.29585       80.92788
H         87.22286       48.17685       83.01382
H         86.65992       49.89346       82.85252
H         86.39820       49.01402       84.38216
H         85.65367       47.60789       79.37021
H         86.89360       47.61736       80.67618
H         85.53152       46.42339       80.69635
N         85.59824       46.17230       85.55645
C         86.58533       45.28688       84.94316
C         85.93309       43.99612       84.44664
O         86.26934       43.53998       83.36342
C         87.75393       45.08865       85.92495
C         88.35188       46.43750       86.27359
O         88.82036       47.14888       85.39698
O         88.33259       46.87908       87.54557
H         85.57326       46.22483       86.58752
H         87.07462       45.79063       84.08132
H         88.54598       44.46298       85.46170
H         87.39643       44.59026       86.85081
N         84.88862       43.44119       85.13123
C         84.05215       42.36664       84.60736
C         84.74980       41.03409       84.48936
O         85.36319       40.57760       85.44263
H         84.59720       43.86932       86.02093
H         83.63579       42.67588       83.62161
H         83.19199       42.22665       85.29147
N         84.64352       40.33564       83.32685
C         85.34324       39.09043       83.04389
C         86.31131       39.32045       81.87791
O         86.88833       38.36434       81.37892
C         84.31733       37.94014       82.79848
C         83.29594       38.09326       81.69292
O         83.22843       39.10426       81.02072
O         82.41200       37.10203       81.47243
H         84.06924       40.73831       82.57245
H         85.95498       38.75871       83.91288
H         83.73578       37.79965       83.73557
H         84.87869       36.99841       82.61267
N         86.55668       40.59209       81.41651
C         87.38540       40.90177       80.26192
C         86.69723       40.59258       78.94042
O         87.26174       40.89121       77.89678
H         86.14621       41.39899       81.90071
H         88.37445       40.40479       80.34996
H         87.56002       42.00092       80.26490
N         85.45068       40.04035       78.91228
C         84.70365       39.69048       77.71684
C         84.46265       40.87547       76.80357
O         84.85988       40.85734       75.64938
C         85.27626       38.42177       77.05520
C         85.13517       37.24252       78.04809
C         85.23524       35.87846       77.42408
N         84.94962       34.78708       78.17194
O         85.51914       35.74959       76.24245
H         84.99167       39.83671       79.79550
H         83.67747       39.39837       78.03173
H         86.32799       38.54314       76.71291
H         84.63618       38.20807       76.17220
H         84.11430       37.27403       78.48590
H         85.86629       37.34189       78.88104
H         84.67804       34.89065       79.16192
H         84.96576       33.84591       77.75391
N         83.75245       41.93851       77.28233
C         83.40870       43.09615       76.45544
C         82.34018       42.70978       75.43174
O         81.42885       41.97325       75.77084
C         82.87377       44.29708       77.29822
C         83.74764       44.61594       78.52375
C         82.80803       45.55883       76.41088
H         83.44858       41.91241       78.26378
H         84.34410       43.44814       75.96505
H         81.85590       44.06922       77.68584
H         84.79768       44.82364       78.23676
H         83.33600       45.50343       79.04914
H         83.72538       43.79248       79.26451
H         82.51860       46.44932       77.00596
H         83.80292       45.76068       75.95268
H         82.06242       45.44350       75.59841
N         82.37818       43.22949       74.16941
C         81.38282       42.91927       73.13914
C         80.75962       44.19089       72.57032
O         81.47783       45.06951       72.12236
C         82.09187       42.12501       72.03077
C         81.28540       41.98256       70.75937
N         80.07712       41.37498       70.75356
O         81.73720       42.43377       69.71724
H         83.15708       43.85358       73.91818
H         80.56510       42.27923       73.53357
H         82.34448       41.12011       72.43410
H         83.04099       42.64265       71.77440
H         79.67214       40.99162       71.61877
H         79.54633       41.29435       69.87270
N         79.39532       44.30882       72.51423
C         78.73239       45.44958       71.88271
C         77.29431       45.51320       72.39364
O         76.36174       45.57969       71.60219
C         78.80669       45.27377       70.33353
C         78.57069       46.51313       69.49471
C         79.51274       47.55458       69.52359
C         77.47237       46.60727       68.61758
C         79.36734       48.66727       68.68875
C         77.32289       47.73045       67.79074
C         78.27439       48.76145       67.82229
O         78.15151       49.84070       67.02114
H         78.81445       43.55887       72.91312
H         79.24850       46.37559       72.21894
H         78.10909       44.45540       70.04430
H         79.81997       44.92495       70.04501
H         80.37695       47.48726       70.17154
H         76.73982       45.81177       68.56442
H         80.11274       49.45255       68.70640
H         76.47715       47.79424       67.11611
H         77.40573       49.94507       66.41290
N         77.05120       45.44611       73.73773
C         75.70393       45.46403       74.29195
C         75.17073       46.87961       74.42327
O         74.07669       47.10759       73.92501
C         75.53190       44.60568       75.57564
C         75.61583       43.08766       75.25258
C         75.06312       42.17735       76.32931
O         75.65885       42.07464       77.52900
O         74.08360       41.48610       76.09209
H         77.84854       45.34295       74.38389
H         75.01188       44.96755       73.57355
H         74.50514       44.79139       75.95892
H         76.23435       44.92499       76.36473
H         76.65701       42.79780       75.00007
H         74.98294       42.89643       74.35915
N         75.82220       47.91455       75.03515
C         77.16473       47.89838       75.61730
C         78.21546       48.31984       74.59244
O         77.87928       48.57398       73.44428
C         77.20305       48.96983       76.73526
C         76.28448       48.68298       77.92466
C         76.73754       47.47749       78.69851
O         75.85315       46.63689       79.26344
O         77.92269       47.33340       78.94779
H         75.33738       48.82604       75.02117
H         77.42293       46.90719       76.04100
H         76.92957       49.95603       76.29518
H         78.22469       49.09524       77.14954
H         75.21624       48.61256       77.63001
H         76.39397       49.55654       78.60287
N         79.51665       48.48426       74.98543
C         80.54000       49.05856       74.13614
H         81.41253       48.37612       74.08409
H         80.17831       49.27663       73.11079
H         80.87330       50.01712       74.59330
H         79.78885       48.25472       75.95158
Ca        76.83391       45.28676       80.80065
O         76.46847       42.41292       81.16934
H         77.02995       41.62336       80.96716
H         75.53825       42.08630       81.09234
O         77.52949       44.09651       78.36454
H         77.63503       43.38096       79.03092
H         77.52848       43.59793       77.51514
O         74.28751       44.26116       79.62485
H         73.35454       43.93556       79.59294
H         74.67929       43.97755       78.76285

Ca 1.70



