%chk=loop2.cluster67.chk
%nprocshared=48
%mem=10GB
%nosave
#b3lyp/svp scf=(tight,noincore) Test 
#IOP(5/87=12) Density=Current Pop=(MK,readradii) iop(6/33=2) iop(6/42=6)

loop2.cluster67 

   -2  1 
C         85.35303       49.38690      -26.15694
C         83.98978       49.98517      -25.94427
O         83.57491       50.04886      -24.79592
H         86.07784       49.93948      -25.52395
H         85.32691       48.32578      -25.83814
H         85.74999       49.43531      -27.18108
N         83.20764       50.47658      -26.94872
C         83.49451       50.42063      -28.38130
C         82.34102       49.78705      -29.14028
O         81.25868       49.67737      -28.58621
C         83.85379       51.83419      -28.93050
C         82.97427       53.01044      -28.55509
O         83.25578       54.12365      -28.96954
O         81.92115       52.87118      -27.73873
H         82.31894       50.89836      -26.66725
H         84.34565       49.76439      -28.60226
H         83.90405       51.78551      -30.03880
H         84.86377       52.09014      -28.54915
N         82.53224       49.32014      -30.42250
C         81.47288       48.87844      -31.34243
C         80.76866       50.06723      -31.96978
O         80.66887       50.12751      -33.18845
C         80.47254       47.85876      -30.76201
H         83.49330       49.32273      -30.79399
H         81.94876       48.35030      -32.20090
H         79.62964       47.71994      -31.47649
H         80.95700       46.87064      -30.62094
H         80.01290       48.17138      -29.81247
N         80.27687       51.06564      -31.19666
C         79.49445       52.17322      -31.70558
C         79.51733       53.34298      -30.74087
O         79.56118       53.14835      -29.53678
C         78.05233       51.73049      -32.00163
C         77.37740       50.80757      -31.00197
O         78.03930       50.20489      -29.98582
O         76.24191       50.43783      -31.24690
H         80.42636       51.02665      -30.19326
H         79.95508       52.55802      -32.64472
H         78.05774       51.16609      -32.95812
H         77.43004       52.63881      -32.16017
N         79.57021       54.61391      -31.22412
C         79.71190       55.75505      -30.34543
C         78.45920       56.02179      -29.55276
O         77.45793       56.41075      -30.13693
H         79.57075       54.77106      -32.24292
H         79.91559       56.66617      -30.94485
H         80.59107       55.58672      -29.68513
N         78.44919       55.83852      -28.20326
C         77.30937       56.20246      -27.35978
C         77.73822       57.00389      -26.12630
O         76.86462       57.45944      -25.40074
C         76.57183       54.93549      -26.88523
C         76.29387       53.99283      -28.02551
N         75.38778       54.28977      -28.98186
O         76.91130       52.94678      -28.09061
H         79.26664       55.38902      -27.78151
H         76.59433       56.81485      -27.94953
H         75.62459       55.18619      -26.35879
H         77.21319       54.41421      -26.15005
H         74.84033       55.15954      -28.93627
H         75.22696       53.63096      -29.75945
N         79.05690       57.16331      -25.78015
C         79.46630       57.80337      -24.54281
C         78.96659       56.99926      -23.35436
O         78.96075       55.77975      -23.45273
H         79.80979       56.78914      -26.36843
H         79.12199       58.85110      -24.56942
H         80.57838       57.79920      -24.49801
N         78.56836       57.55412      -22.17170
C         78.67914       58.96782      -21.81232
C         79.70434       59.17002      -20.70725
O         80.04427       60.31380      -20.43119
C         77.31914       59.50047      -21.30310
C         76.25794       59.50443      -22.40284
O         76.89406       58.70758      -20.22107
H         78.22045       56.90597      -21.44823
H         79.02653       59.58721      -22.65596
H         77.46227       60.55022      -20.95716
H         76.03745       59.07941      -19.88854
H         76.02057       58.46903      -22.72309
H         75.33180       59.98136      -22.01433
H         76.61569       60.09404      -23.27185
N         80.18610       58.11490      -19.97942
C         81.05391       58.26109      -18.82358
C         80.35809       59.16610      -17.81116
O         80.84108       60.26064      -17.56141
C         82.48688       58.70850      -19.24852
C         82.97674       57.78738      -20.40292
C         83.42449       58.60037      -18.02725
C         84.40060       58.04808      -20.88746
H         79.88777       57.15849      -20.19719
H         81.18593       57.25953      -18.36646
H         82.47717       59.76099      -19.61168
H         82.31163       57.92005      -21.28515
H         82.90926       56.72729      -20.07725
H         84.44235       58.96558      -18.26467
H         83.06117       59.20931      -17.17647
H         83.48858       57.54200      -17.69163
H         84.63550       57.32896      -21.70115
H         84.49841       59.08089      -21.28078
H         85.13806       57.87850      -20.07829
N         79.16055       58.83116      -17.24160
C         78.50238       57.52827      -17.36587
C         79.27824       56.43208      -16.64057
O         79.63101       55.43952      -17.25882
C         77.01140       57.58788      -16.92412
C         76.61419       58.21349      -15.60129
O         75.43150       58.25625      -15.30570
O         77.50703       58.79007      -14.77816
H         78.69947       59.55923      -16.67891
H         78.43173       57.23324      -18.43270
H         76.60337       56.55329      -16.96365
H         76.47283       58.18090      -17.69017
N         79.58504       56.57033      -15.32288
C         80.32113       55.58259      -14.54113
C         79.46165       55.15889      -13.34161
O         78.67545       55.96785      -12.87939
C         81.67442       56.20550      -14.11987
C         81.55432       57.50832      -13.35498
C         81.51135       58.73588      -14.04462
C         81.50082       57.50853      -11.95185
C         81.40492       59.93888      -13.34029
C         81.39981       58.71637      -11.25125
C         81.34967       59.92935      -11.94471
H         79.31382       57.43040      -14.84870
H         80.55392       54.69302      -15.15727
H         82.25217       56.40847      -15.04983
H         82.29316       55.48744      -13.54409
H         81.55492       58.75787      -15.12572
H         81.53988       56.57559      -11.40432
H         81.36687       60.87899      -13.87661
H         81.36117       58.71274      -10.16978
H         81.27005       60.86215      -11.40054
N         79.56399       53.91505      -12.76025
C         80.53174       52.90577      -13.12073
C         80.25861       52.16368      -14.40865
O         79.20869       52.30988      -15.02333
C         80.52527       51.96216      -11.90998
C         79.09931       52.08112      -11.39474
C         78.79921       53.56716      -11.58014
H         81.54281       53.35319      -13.20881
H         80.87685       50.92347      -12.09961
H         81.17724       52.41502      -11.13232
H         78.44477       51.50729      -12.08706
H         78.93808       51.71240      -10.35777
H         77.70501       53.71955      -11.70006
H         79.18567       54.17649      -10.73424
N         81.26594       51.40068      -14.90676
C         81.24143       50.74355      -16.20056
C         82.67915       50.49332      -16.69265
O         82.98674       49.37444      -17.07990
C         80.41897       49.42803      -16.09865
C         80.72530       48.54910      -14.85252
C         82.18113       48.27254      -14.57370
O         82.66604       47.18971      -14.85489
O         82.90050       49.14585      -13.84105
H         82.15300       51.39501      -14.38148
H         80.79877       51.42279      -16.96384
H         80.55808       48.83850      -17.03185
H         79.33613       49.67092      -16.04086
H         80.18331       47.58538      -14.96684
H         80.30823       49.03095      -13.94210
N         83.64526       51.46510      -16.70134
C         83.46518       52.84049      -16.27184
H         82.41277       53.12673      -16.10340
H         84.04312       53.00108      -15.33517
H         83.86147       53.52537      -17.04744
H         84.59664       51.19411      -16.99401
Ca        78.83400       51.06154      -28.04063
O         79.38004       53.33221      -26.25625
H         79.26116       53.56881      -25.30468
H         80.15762       53.87185      -26.52618
O         78.73024       48.30767      -27.36053
H         79.33779       47.56913      -27.10745
H         78.29714       48.00349      -28.19736
O         75.92392       50.21783      -27.74007
H         75.38258       51.04345      -27.68458
H         75.94807       50.01467      -28.70594
O         80.27884       50.86949      -25.33147
H         80.45334       50.05749      -24.79600
H         80.94556       51.52904      -25.01144
O         77.31445       51.48895      -25.19852
H         76.42045       51.85818      -24.99110
H         77.90331       51.87046      -24.50068

Ca 1.70



