%chk=loop4.cluster40.chk
%nprocshared=48
%mem=10GB
%nosave
#b3lyp/svp scf=(tight,noincore) Test 
#IOP(5/87=12) Density=Current Pop=(MK,readradii) iop(6/33=2) iop(6/42=6)

loop4.cluster40 

   -3  1 
C         44.75395       48.29612       48.72894
C         44.88291       47.43544       49.95216
O         45.78647       46.61761       50.00022
H         43.97523       49.07474       48.86614
H         45.72120       48.81188       48.53985
H         44.49711       47.67363       47.84863
N         44.03816       47.61698       51.01317
C         44.18494       46.94693       52.30779
C         45.53847       47.27005       52.93321
O         46.03487       46.53013       53.76772
C         43.67761       45.48087       52.30048
C         44.40696       44.59405       51.35055
O         43.83455       44.10909       50.38665
O         45.71206       44.37268       51.56712
H         43.31476       48.34642       50.94202
H         43.47436       47.44794       53.00025
H         42.60341       45.50482       52.01501
H         43.74943       45.04200       53.31961
N         46.11203       48.47149       52.64261
C         47.27178       49.07279       53.27422
C         46.95111       49.47447       54.71104
O         47.79933       49.37924       55.58200
C         48.63299       48.33242       53.06511
C         49.78366       49.37608       53.19866
C         48.70489       47.62337       51.70654
C         51.19691       48.80679       53.09365
H         45.64115       49.07353       51.95111
H         47.37158       50.04285       52.73496
H         48.73505       47.53945       53.83907
H         49.69762       49.87341       54.17845
H         49.68332       50.17403       52.42902
H         48.55502       48.33278       50.86942
H         49.68281       47.11861       51.59721
H         47.93779       46.82608       51.64728
H         51.92212       49.56305       53.46191
H         51.30326       47.90152       53.70482
H         51.45293       48.55524       52.04632
N         45.72165       49.99921       54.99569
C         45.39715       50.64120       56.26580
C         44.28134       49.94384       57.05789
O         43.15953       50.42959       57.05405
C         45.07129       52.13972       56.03362
C         43.92025       52.47549       55.10803
O         43.54303       53.76014       54.97467
O         43.32199       51.61137       54.48729
H         45.01269       50.00336       54.25392
H         46.28316       50.69454       56.92535
H         45.97704       52.64758       55.63819
H         44.84384       52.57992       57.02852
N         44.52886       48.89760       57.90380
C         45.79798       48.19779       57.98413
C         45.85244       47.11727       56.92508
O         44.84851       46.89976       56.25971
H         43.76448       48.57210       58.51710
H         45.86235       47.68402       58.96711
H         46.64114       48.90738       57.96264
N         46.95471       46.33825       56.72140
C         48.23611       46.51693       57.40029
C         49.35834       46.15698       56.43099
O         49.32846       45.04870       55.92071
C         48.26899       45.62601       58.65041
C         49.52764       45.82677       59.44513
O         49.49912       46.55763       60.57548
O         50.57763       45.33024       59.07184
H         46.86918       45.56613       56.04169
H         48.32348       47.55738       57.74312
H         48.14460       44.54960       58.39946
H         47.41066       45.92219       59.28732
N         50.38141       46.99588       56.08647
C         50.71098       48.25990       56.73649
C         52.20414       48.34173       56.98176
O         52.77362       49.42276       56.93161
H         51.04447       46.64570       55.38044
H         50.23215       48.35479       57.72705
H         50.39990       49.11571       56.11353
N         52.87931       47.21600       57.33383
C         54.27106       47.18598       57.77581
C         55.32687       47.26473       56.66422
O         56.50503       47.17299       56.98197
C         54.47183       45.91496       58.63640
C         54.34765       44.59661       57.84083
C         54.45291       43.39071       58.73498
N         53.54067       43.17311       59.71315
O         55.35478       42.58640       58.55791
H         52.32483       46.35670       57.42011
H         54.43167       48.04109       58.46999
H         53.70412       45.94538       59.44231
H         55.46801       45.95383       59.12641
H         55.14924       44.56528       57.07245
H         53.37580       44.51794       57.31611
H         52.76567       43.83358       59.87003
H         53.60605       42.33433       60.30845
N         54.99805       47.45078       55.35281
C         56.01407       47.53085       54.29764
C         56.49918       46.14383       53.90960
O         55.68488       45.26470       53.66334
C         55.46184       48.27118       53.04813
C         56.50367       48.30782       51.90762
C         55.09505       49.72103       53.40779
H         54.01092       47.59154       55.09703
H         56.87315       48.15176       54.64272
H         54.54986       47.74662       52.68701
H         56.12980       48.90387       51.04942
H         57.45504       48.76260       52.26462
H         56.72640       47.28748       51.53241
H         54.41761       49.76821       54.28395
H         56.01033       50.30736       53.64566
H         54.57902       50.20085       52.55015
N         57.83406       45.92675       53.72354
C         58.39045       44.67804       53.22140
C         57.93415       44.37444       51.80074
O         58.40000       45.05562       50.89830
C         58.27133       43.51873       54.23679
C         59.07740       43.81183       55.48296
N         60.41487       44.03615       55.40504
O         58.52212       43.83876       56.57029
H         58.48935       46.70475       53.88990
H         59.48175       44.82367       53.09025
H         58.69662       42.59521       53.78631
H         57.20971       43.31828       54.49672
H         60.90981       44.00455       54.50146
H         60.96127       44.24333       56.25321
N         57.13725       43.30226       51.50754
C         56.97073       42.81945       50.13586
C         55.51057       42.68140       49.70678
O         54.61341       42.77307       50.52929
C         57.65867       41.44552       50.06386
C         59.16536       41.50238       50.23448
C         59.78111       40.98816       51.39113
C         59.96982       42.01298       49.20125
C         61.17752       40.95811       51.49547
C         61.36551       41.96383       49.30075
C         61.97296       41.42297       50.44330
O         63.31647       41.32936       50.53099
H         56.73106       42.74434       52.27148
H         57.44543       43.51145       49.40750
H         57.45696       40.94376       49.09510
H         57.20934       40.81064       50.86074
H         59.18324       40.59935       52.20525
H         59.51581       42.41093       48.30294
H         61.64342       40.54836       52.38363
H         61.97435       42.32762       48.48222
H         63.89446       41.57346       49.79332
N         55.22787       42.49335       48.37637
C         53.87778       42.34920       47.81736
C         52.96634       43.53099       48.04586
O         51.78412       43.41807       47.74287
C         53.23680       40.97770       48.16028
C         53.94441       39.83860       47.39733
C         53.80118       40.01579       45.90303
O         54.87854       40.32032       45.15387
O         52.70149       39.94108       45.37638
H         56.01265       42.47836       47.70986
H         53.96659       42.37056       46.71286
H         52.17171       40.95390       47.83777
H         53.25719       40.79992       49.25604
H         53.50769       38.85358       47.67011
H         55.01875       39.83356       47.67492
N         53.45239       44.74551       48.41579
C         52.62719       45.94337       48.43602
C         53.22069       46.95497       47.48061
O         52.53362       47.39521       46.57155
C         52.50315       46.50883       49.86468
C         52.05135       45.44572       50.88671
C         50.72778       44.77972       50.61433
O         50.37745       43.71033       51.34691
O         49.97409       45.18387       49.74330
H         54.45398       44.84075       48.63979
H         51.59731       45.72396       48.08268
H         51.79201       47.36376       49.85538
H         53.49271       46.88328       50.20273
H         52.00962       45.89606       51.90107
H         52.82464       44.65335       50.90939
N         54.51748       47.35769       47.63077
C         55.15901       48.29856       46.73735
H         56.10609       47.85900       46.35676
H         54.52510       48.56180       45.86543
H         55.39560       49.22021       47.30593
H         55.07820       46.98599       48.40978
Ca        47.39771       43.55995       50.31269
O         48.42026       41.32912       51.85152
H         47.91881       40.92243       52.60085
H         49.26926       41.63062       52.25961
O         46.15185       44.20549       47.94133
H         46.26854       45.18518       47.87936
H         45.40272       44.09107       48.57455
O         48.27262       44.27743       53.02249
H         48.26822       44.16239       53.99874
H         47.51199       44.87835       52.87002
O         46.11169       41.37772       49.47001
H         46.39403       40.48869       49.79830
H         45.40358       41.20485       48.80283
O         49.00356       41.87694       48.53817
H         49.67912       41.25484       48.90681
H         49.52166       42.66468       48.24152

Ca 1.70



