%chk=loop3.cluster52.chk
%nprocshared=48
%mem=10GB
%nosave
#b3lyp/svp scf=(tight,noincore) Test 
#IOP(5/87=12) Density=Current Pop=(MK,readradii) iop(6/33=2) iop(6/42=6)

loop3.cluster52 

   0  1 
C         96.88958       40.38663      105.80924
C         98.13956       41.16934      105.54683
O         98.82897       40.88004      104.58451
H         96.16126       40.60025      104.99723
H         97.11464       39.30188      105.82763
H         96.42729       40.67886      106.77544
N         98.45312       42.23592      106.32932
C         99.52726       43.16402      105.98438
C        100.91628       42.69404      106.40654
O        101.04575       41.80392      107.23494
C         99.21908       44.57703      106.55178
C         99.17600       44.66378      108.06305
O         98.35557       44.02710      108.70469
O        100.01344       45.49522      108.70954
H         97.77864       42.49119      107.06044
H         99.52937       43.27848      104.87657
H         98.23538       44.91062      106.15391
H         99.98407       45.29365      106.18332
N        102.00817       43.33466      105.89400
C        103.38351       43.13085      106.36734
C        104.01140       41.81782      105.94068
O        105.06774       41.47397      106.45543
C        104.28266       44.26232      105.83763
C        103.78584       45.62581      106.32556
C        104.64869       46.75567      105.78191
C        104.04342       48.09774      106.20057
N        104.88423       49.20840      105.76930
H        101.83284       44.06172      105.18562
H        103.37578       43.17734      107.47942
H        104.27642       44.23757      104.72283
H        105.32962       44.11665      106.18434
H        103.79926       45.64604      107.43725
H        102.74497       45.80503      105.98978
H        104.68153       46.70559      104.67001
H        105.68143       46.64785      106.17812
H        103.93074       48.13172      107.30698
H        103.03269       48.19635      105.74159
H        105.80441       49.16207      106.26406
H        105.03228       49.17106      104.73481
H        104.40781       50.10515      106.01655
N        103.45352       41.06208      104.96327
C        103.99650       39.76512      104.56538
C        104.99362       39.81247      103.41562
O        105.64391       38.80026      103.18971
C        102.82966       38.82071      104.22208
C        101.92354       39.33796      103.13722
O        100.75797       38.71421      102.91051
O        102.21803       40.32568      102.47957
H        102.58602       41.40051      104.53141
H        104.52856       39.31650      105.43452
H        102.21280       38.71460      105.13653
H        103.19643       37.81425      103.92399
N        105.16975       40.92092      102.63415
C        106.03577       40.89328      101.45804
C        107.33641       41.63373      101.68567
O        107.51126       42.21829      102.74507
H        104.63893       41.78207      102.83117
H        105.48504       41.32145      100.59533
H        106.28399       39.84633      101.19106
N        108.34679       41.62049      100.76261
C        108.28946       40.88119       99.49714
C        107.26815       41.52749       98.55535
O        106.94755       42.69158       98.75135
C        109.70614       40.82058       98.86723
C        110.71615       40.26095       99.84881
N        110.62740       38.98481      100.29575
O        111.61768       40.97938      100.25373
H        109.22022       42.11270      101.00662
H        107.98233       39.83892       99.73009
H        110.00645       41.85153       98.58541
H        109.74736       40.20697       97.94623
H        109.88414       38.35573       99.96014
H        111.31240       38.62667      100.97933
N        106.63031       40.83468       97.56629
C        106.96228       39.47614       97.18939
C        106.01015       38.45422       97.71238
O        105.02912       38.77837       98.35831
H        105.87886       41.30683       97.03736
H        107.95593       39.17525       97.53728
H        106.96068       39.40803       96.08011
N        106.25912       37.15703       97.40935
C        105.34866       36.06994       97.69677
C        106.08243       34.92701       98.39372
O        107.30097       34.85435       98.34219
C        104.83308       35.60128       96.31681
C        103.97851       36.65461       95.63250
C        102.66804       36.89106       96.07702
C        104.47240       37.39542       94.54090
C        101.85794       37.83225       95.43673
C        103.66485       38.35597       93.91523
C        102.35191       38.57155       94.36018
O        101.55928       39.48544       93.76258
H        107.10177       36.94203       96.85539
H        104.49817       36.39468       98.33833
H        104.25525       34.66521       96.37868
H        105.72550       35.37548       95.68862
H        102.26628       36.33837       96.90898
H        105.48253       37.24091       94.18318
H        100.84443       37.99124       95.78385
H        104.05622       38.92929       93.08360
H        101.86663       40.02060       93.01717
N        105.35687       33.93852       98.98000
C        105.91839       32.67346       99.43712
C        105.71472       31.63864       98.34252
O        106.65146       30.90551       98.04506
C        105.40860       32.26795      100.85797
C        106.03651       33.14437      101.97309
C        103.87330       32.29293      100.99938
C        107.56307       33.00700      102.04235
H        104.34432       34.04018       98.99316
H        107.01935       32.73479       99.48670
H        105.73578       31.22159      101.04906
H        105.63720       32.79909      102.95206
H        105.76404       34.21659      101.85025
H        103.48008       33.32931      100.94567
H        103.38691       31.67559      100.22011
H        103.56938       31.88701      101.98947
H        107.84724       31.93259      102.06943
H        108.05931       33.49446      101.17934
H        107.95076       33.49926      102.95645
N        104.57670       31.61777       97.59418
C        104.44722       30.86003       96.35775
C        103.47329       29.71259       96.50575
O        103.16461       29.06702       95.51888
C        103.96412       31.80194       95.23398
O        102.62179       32.16558       95.43589
H        103.78203       32.19678       97.88381
H        105.42835       30.44150       96.04293
H        104.01986       31.28942       94.25210
H        104.63027       32.69313       95.15340
H        102.60744       33.11134       95.71278
N        102.93548       29.41664       97.72469
C        101.92732       28.38409       97.88278
C        101.04192       28.68140       99.07011
O        101.51746       29.17851      100.07885
C        102.57609       27.02075       98.08417
H        103.23867       29.93439       98.55588
H        101.29132       28.34641       96.97090
H        103.22527       26.76792       97.22154
H        103.18134       27.01538       99.01567
H        101.77989       26.24850       98.16690
N         99.72629       28.32491       99.01658
C         98.79146       28.44209      100.13230
C         98.46920       29.86742      100.56535
O         97.61752       30.02356      101.43239
C         99.29276       27.62106      101.33190
H         99.37875       27.87485       98.15829
H         97.83697       27.98397       99.79140
H        100.19450       28.07808      101.79155
H         98.50852       27.56098      102.11439
H         99.54819       26.58979      101.00865
N         99.11169       30.95707      100.04921
C         98.89614       32.29522      100.58460
C         97.66522       32.96557       99.99598
O         97.24599       33.99318      100.51042
C        100.15566       33.15180      100.38351
C        100.38032       33.55354       98.92061
C        101.66346       34.28801       98.76544
O        102.04779       35.22094       99.65124
O        102.36841       34.04583       97.81364
H         99.83943       30.82992       99.33946
H         98.77413       32.19950      101.68788
H        101.02716       32.58007      100.76993
H        100.06375       34.08059      100.98346
H         99.56001       34.22383       98.59493
H        100.39536       32.67575       98.23693
N         97.04626       32.44563       98.89694
C         95.87341       33.05557       98.31347
H         95.08752       33.17835       99.08694
H         96.12646       34.04102       97.86632
H         95.47853       32.39337       97.51383
H         97.41463       31.59415       98.45176
Ca       100.54756       39.80109      100.29359
O        100.01730       36.98033      100.95294
H        100.72869       37.03942      100.26983
H        100.34705       36.32370      101.61367
O        102.87743       38.29641      100.62646
H        103.51728       38.91400      100.19922
H        103.37606       37.45939      100.78741
O         99.58116       41.91339      101.94237
H         99.58119       42.88054      102.14102
H        100.10950       41.52188      102.67823
O        101.82075       39.72858       97.86570
H        102.67536       39.28693       97.64272
H        101.70695       40.42480       97.17296
O         99.07180       41.43891       98.67080
H         98.15134       41.24677       98.98059
H         99.00725       41.48902       97.68533
O        101.97944       42.33560       99.79064
H        102.78795       42.32984       99.21950
H        102.11578       43.09216      100.41416
O         97.97403       39.20659      101.47893
H         98.33342       39.40177      102.37943
H         97.49305       38.34887      101.58588
O         98.75561       38.32967       98.67384
H         98.79066       37.34662       98.77625
H         98.00923       38.48819       98.04606

Ca 1.70



