%chk=loop3.cluster25.chk
%nprocshared=48
%mem=10GB
%nosave
#b3lyp/svp scf=(tight,noincore) Test 
#IOP(5/87=12) Density=Current Pop=(MK,readradii) iop(6/33=2) iop(6/42=6)

loop3.cluster25 

   0  1 
C         72.84621       70.29843       28.18647
C         71.80198       70.35428       29.26108
O         71.47423       69.32599       29.83275
H         73.78810       69.88777       28.60009
H         72.48734       69.65260       27.35676
H         73.04935       71.30908       27.77066
N         71.19076       71.53417       29.54576
C         70.08444       71.66546       30.47822
C         68.84062       71.70296       29.62204
O         68.21745       72.74179       29.47264
C         70.33066       72.91383       31.35706
C         69.21704       73.29921       32.30457
O         68.70205       74.39509       32.17430
O         68.78810       72.49772       33.30387
H         71.44247       72.36455       28.98691
H         69.99255       70.78661       31.15288
H         70.48777       73.77905       30.67580
H         71.26555       72.76836       31.93864
N         68.44977       70.55772       28.98720
C         67.25665       70.46266       28.14884
C         65.97461       70.64585       28.96519
O         64.90908       70.82376       28.39106
C         67.25509       69.06618       27.48820
C         66.23675       68.90878       26.36198
C         66.44724       67.57466       25.63792
C         65.40081       67.40301       24.53458
N         65.68857       66.23102       23.71115
H         69.02726       69.71311       29.11642
H         67.34714       71.24600       27.36291
H         67.08661       68.28344       28.26531
H         68.26258       68.90028       27.04869
H         66.39071       69.72820       25.62565
H         65.20441       68.96665       26.76339
H         66.37579       66.72247       26.35078
H         67.46644       67.57425       25.19026
H         65.39513       68.30343       23.88174
H         64.39721       67.29938       25.00475
H         64.93135       66.12687       22.99806
H         66.59962       66.36649       23.21435
H         65.73034       65.36784       24.29942
N         66.02591       70.59495       30.32662
C         64.87759       70.70373       31.21520
C         64.76311       72.10591       31.81509
O         63.79492       72.37154       32.51398
C         64.98508       69.62973       32.32494
C         66.26895       69.72126       33.10610
O         67.28218       69.19853       32.67122
O         66.29024       70.31287       34.31249
H         66.93843       70.48211       30.76675
H         63.93619       70.52785       30.64623
H         64.93359       68.60885       31.88768
H         64.13155       69.73450       33.02534
N         65.67907       73.07433       31.52124
C         65.52198       74.46956       31.88723
C         65.71377       74.80920       33.35049
O         65.49557       75.96360       33.69114
H         66.46311       72.84627       30.91558
H         64.51255       74.79953       31.55760
H         66.26197       75.07151       31.31773
N         66.08960       73.88635       34.28761
C         66.07149       74.22420       35.71408
C         67.19422       75.17086       36.15436
O         67.12598       75.69427       37.25730
C         65.97192       72.95135       36.58285
C         67.27705       72.25755       36.88674
N         67.57728       71.91877       38.16393
O         68.05069       71.97471       35.98693
H         66.26008       72.91360       33.99887
H         65.09830       74.74144       35.87011
H         65.28556       72.24040       36.07394
H         65.49402       73.22062       37.54782
H         66.91503       72.11658       38.92936
H         68.45771       71.43176       38.38516
N         68.26291       75.41859       35.34049
C         69.34337       76.34170       35.65990
C         70.69853       75.66624       35.73142
O         71.69168       76.37136       35.85263
H         68.32022       74.93582       34.44239
H         69.17770       76.86686       36.62591
H         69.37603       77.10625       34.85607
N         70.81782       74.30635       35.75644
C         72.08723       73.63384       36.03336
C         72.24505       72.42364       35.14503
O         71.23828       71.84861       34.77317
C         72.03504       73.12607       37.49116
C         71.62082       74.22253       38.44651
C         72.52245       75.21927       38.84881
C         70.29388       74.26900       38.90681
C         72.09770       76.24398       39.70557
C         69.86786       75.29844       39.74356
C         70.76863       76.29147       40.14668
O         70.36365       77.29736       40.94826
H         69.96287       73.73257       35.73912
H         72.94946       74.32471       35.90686
H         72.99313       72.65905       37.80650
H         71.25965       72.32732       37.53281
H         73.54804       75.20003       38.50304
H         69.58302       73.52265       38.59136
H         72.79731       77.00780       40.01902
H         68.83588       75.32655       40.07138
H         69.44374       77.37325       41.24163
N         73.46606       71.86568       34.91575
C         73.61675       70.56861       34.25505
C         74.11441       69.56795       35.29271
O         74.60585       69.97554       36.34041
C         74.62759       70.65896       33.06742
C         74.35390       71.83961       32.10536
C         74.69152       69.34168       32.26000
C         75.62113       72.17247       31.30066
H         74.30629       72.33629       35.28629
H         72.63010       70.22087       33.87427
H         75.61631       70.85956       33.53390
H         74.12407       72.76028       32.67920
H         73.48965       71.62698       31.43841
H         75.35044       69.40235       31.37614
H         75.11765       68.53000       32.86737
H         73.67730       69.05679       31.90314
H         75.95300       71.33745       30.65453
H         75.45413       73.05814       30.65789
H         76.44936       72.41080       32.00627
N         73.99189       68.23322       35.07875
C         74.52433       67.21321       35.96990
C         75.39051       66.22616       35.19740
O         75.56627       66.38395       34.00077
C         73.35508       66.49264       36.65428
O         72.57601       65.81187       35.71195
H         73.47422       67.92715       34.25194
H         75.14649       67.67404       36.76754
H         72.72937       67.24589       37.17754
H         73.75416       65.77821       37.40625
H         71.98607       65.20182       36.22614
N         75.95533       65.16136       35.81958
C         76.69567       64.11807       35.11245
C         75.79973       63.37080       34.12527
O         76.19370       63.16217       32.98829
C         77.27081       63.13512       36.13592
H         75.83343       65.07583       36.84150
H         77.56156       64.55739       34.56676
H         77.85295       62.33678       35.63015
H         77.95354       63.68438       36.82059
H         76.46206       62.67160       36.74079
N         74.56703       62.94521       34.51880
C         73.64079       62.20871       33.65471
C         73.26026       63.00672       32.41744
O         73.30792       62.48506       31.31143
C         72.37920       61.87933       34.46849
H         74.26549       63.17089       35.47853
H         74.09210       61.24198       33.34502
H         72.66669       61.26866       35.35205
H         71.88457       62.80588       34.83498
H         71.65301       61.29689       33.86414
N         72.86114       64.29265       32.55358
C         72.43506       65.15184       31.45146
C         73.56842       65.36890       30.45893
O         73.36231       65.18484       29.26808
C         71.91980       66.47038       32.04678
C         70.67230       66.19135       32.92679
C         70.11432       67.40419       33.58347
O         69.08725       67.32344       34.23899
O         70.67583       68.59705       33.36391
H         72.87647       64.68378       33.50522
H         71.57431       64.70165       30.90893
H         71.65155       67.18880       31.24511
H         72.73330       66.91557       32.63287
H         70.88159       65.45910       33.72846
H         69.87917       65.77559       32.27130
N         74.80334       65.73730       30.89452
C         75.95505       65.88361       30.02694
H         76.78183       65.24638       30.41124
H         75.74500       65.57702       28.98165
H         76.29397       66.93997       30.03952
H         74.94217       65.88941       31.89181
Ca        69.43728       70.39713       33.66163
O         70.52324       68.91412       36.71913
H         70.91649       69.28496       37.54854
H         70.31262       67.97258       36.94356
O         67.51585       68.70381       36.55913
H         67.49945       68.45985       37.51823
H         66.58863       68.55013       36.24912

Ca 1.70



