%chk=loop4.cluster28.chk
%nprocshared=48
%mem=10GB
%nosave
#b3lyp/svp scf=(tight,noincore) Test 
#IOP(5/87=12) Density=Current Pop=(MK,readradii) iop(6/33=2) iop(6/42=6)

loop4.cluster28 

   -3  1 
C         44.62551       46.07725       60.77979
C         44.92778       45.60818       62.20607
O         46.31706       45.70655       62.35903
H         43.70994       46.70257       60.72743
H         45.46267       46.69687       60.38420
H         44.50043       45.19407       60.12424
N         44.21944       46.45900       63.17877
C         44.34129       46.08605       64.60421
C         45.68289       46.51057       65.13140
O         46.43363       45.73522       65.70211
C         43.73308       44.71304       65.00434
C         44.24288       43.43403       64.39380
O         43.49870       42.76591       63.69417
O         45.46898       42.96434       64.67897
H         43.20184       46.50404       62.94026
H         43.66923       46.78480       65.15836
H         42.65287       44.78393       64.74759
H         43.79449       44.60785       66.10959
N         45.97784       47.83017       65.01100
C         47.13537       48.52042       65.52614
C         47.24767       48.40982       67.03386
O         47.71589       47.39865       67.54291
C         48.49478       48.19215       64.83977
C         49.50107       49.29625       65.24000
C         48.37136       48.13886       63.31745
C         50.95066       49.00310       64.86218
H         45.27431       48.43002       64.54990
H         46.93851       49.58878       65.27628
H         48.85654       47.20068       65.19576
H         49.45876       49.40181       66.32875
H         49.19220       50.27694       64.81480
H         49.35101       47.97113       62.83019
H         47.75160       47.28360       63.05303
H         47.90736       49.06168       62.91428
H         51.09370       48.98997       63.76494
H         51.59675       49.80428       65.27739
H         51.26846       48.03152       65.29489
N         46.95665       49.50061       67.78887
C         47.45439       49.68579       69.14442
C         46.35233       49.82621       70.17179
O         45.25034       50.21251       69.80942
C         48.36743       50.94666       69.13314
C         47.67681       52.26982       68.83641
O         47.87837       53.32202       69.65019
O         47.00172       52.42233       67.83116
H         46.47460       50.27837       67.32827
H         48.07075       48.80915       69.41529
H         49.13594       50.79247       68.35190
H         48.89563       51.05877       70.09887
N         46.57052       49.59366       71.50199
C         47.79533       49.02203       72.05003
C         47.85333       47.52863       71.75923
O         46.89868       46.85557       72.12276
H         45.80890       49.80336       72.16569
H         47.74175       49.09832       73.15821
H         48.67183       49.62242       71.76794
N         48.91636       46.88348       71.18014
C         50.18855       47.49258       70.79115
C         50.71548       46.84243       69.49623
O         50.64756       45.62506       69.39944
C         51.17479       47.26502       71.94657
C         52.55071       47.79250       71.67027
O         53.49950       47.02626       71.65799
O         52.75119       49.10804       71.46136
H         48.85990       45.85246       71.13940
H         50.06918       48.56794       70.67394
H         51.23978       46.17695       72.15869
H         50.79068       47.77992       72.85370
N         51.27736       47.54685       68.45700
C         51.55777       48.97697       68.46533
C         52.99379       49.29171       68.12575
O         53.23723       50.23820       67.39411
H         51.55823       47.01783       67.61529
H         51.34875       49.46925       69.41974
H         50.93436       49.48951       67.73539
N         54.00202       48.58844       68.70242
C         55.40429       48.98177       68.56608
C         56.01698       48.60579       67.23100
O         57.13738       49.03516       66.97401
C         56.22957       48.48382       69.77528
C         56.30245       46.95107       69.92795
C         56.88696       46.52513       71.25497
N         56.77921       45.23581       71.65002
O         57.41265       47.34271       71.99762
H         53.74886       47.81945       69.32341
H         55.44121       50.09171       68.64023
H         55.73554       48.90326       70.68080
H         57.25965       48.90201       69.73037
H         56.86906       46.49596       69.09014
H         55.28684       46.52489       69.90600
H         56.29697       44.54654       71.05438
H         57.13848       44.93891       72.56928
N         55.35847       47.83306       66.31656
C         55.90805       47.54316       64.99814
C         56.17951       46.05583       64.86860
O         55.26085       45.25135       64.97028
C         54.97665       48.11227       63.89433
C         55.47563       47.74508       62.48843
C         54.90588       49.64495       64.01558
H         54.42898       47.44536       66.54816
H         56.88335       48.05901       64.86156
H         53.95141       47.70340       64.01081
H         55.45894       46.64439       62.34527
H         54.81186       48.19484       61.71830
H         56.51080       48.11184       62.32724
H         54.28987       50.07833       63.19982
H         54.45060       49.94268       64.98206
H         55.92600       50.08479       63.95525
N         57.45567       45.63216       64.63446
C         57.86127       44.24178       64.50637
C         57.21183       43.55729       63.31674
O         57.50864       43.94813       62.19481
C         57.72728       43.43898       65.81789
C         58.55014       43.98121       66.95330
N         57.99190       44.15394       68.17275
O         59.73922       44.21254       66.79049
H         58.19822       46.34287       64.53411
H         58.95226       44.22911       64.27788
H         58.12120       42.41916       65.60818
H         56.66824       43.35473       66.13460
H         57.00199       43.91654       68.33435
H         58.56087       44.48721       68.96379
N         56.37354       42.48490       63.47294
C         55.99439       41.63109       62.36401
C         54.52898       41.68146       62.03870
O         53.69390       41.78112       62.92916
C         56.30910       40.15874       62.68431
C         57.75180       39.84423       62.97650
C         58.08584       39.12580       64.13715
C         58.76462       40.20346       62.07250
C         59.40998       38.75559       64.37970
C         60.09129       39.84528       62.32596
C         60.41608       39.11126       63.47668
O         61.68859       38.73758       63.71779
H         56.05024       42.20460       64.40766
H         56.55210       41.91444       61.44594
H         56.01847       39.55045       61.80163
H         55.67299       39.83128       63.53948
H         57.31685       38.82638       64.83909
H         58.52863       40.75288       61.17087
H         59.65204       38.18050       65.26451
H         60.86366       40.12587       61.62160
H         62.40715       38.95845       63.10853
N         54.15535       41.44720       60.75047
C         52.78673       41.30051       60.29819
C         51.97645       42.57494       60.41953
O         50.75754       42.52505       60.39547
C         52.09446       40.05079       60.86783
C         52.82292       38.75647       60.45578
C         51.85896       37.60593       60.46948
O         52.02068       36.58513       61.32905
O         50.92478       37.59149       59.68110
H         54.89710       41.34449       60.03879
H         52.82795       41.13292       59.19868
H         51.08033       40.04045       60.41976
H         51.97888       40.08291       61.97370
H         53.69069       38.58214       61.13044
H         53.21067       38.82322       59.41492
N         52.62234       43.76784       60.34764
C         51.94404       45.04016       60.16235
C         52.41229       45.60116       58.83106
O         51.58413       45.89514       57.97705
C         52.28660       46.00206       61.31071
C         51.96398       45.47298       62.72302
C         50.51092       45.22119       63.02719
O         50.15664       44.86797       64.27648
O         49.64898       45.35187       62.17396
H         53.64731       43.77020       60.35298
H         50.84223       44.91406       60.12029
H         51.75600       46.96616       61.14979
H         53.37547       46.20084       61.28198
H         52.30805       46.24072       63.44222
H         52.53913       44.54207       62.91824
N         53.74640       45.69219       58.55450
C         54.24623       46.08953       57.26030
H         55.34187       45.90347       57.21907
H         53.76983       45.47681       56.46487
H         54.05350       47.16694       57.08780
H         54.43895       45.40756       59.26236
Ca        47.06579       44.03290       63.64079
O         47.21625       42.75004       61.13688
H         46.40571       42.23696       60.89307
H         47.24562       43.49925       60.49063
O         50.11167       42.07695       63.69794
H         51.00028       42.15047       63.27034
H         50.28024       41.57098       64.53142
O         47.39764       40.98437       63.78375
H         46.71155       40.60137       63.18178
H         47.73830       40.21336       64.30225
O         48.66230       43.18873       66.25679
H         48.84342       42.22650       66.40276
H         48.50793       43.55301       67.16388

Ca 1.70



