%chk=loop1.cluster64.chk
%nprocshared=48
%mem=10GB
%nosave
#b3lyp/svp scf=(tight,noincore) Test 
#IOP(5/87=12) Density=Current Pop=(MK,readradii) iop(6/33=2) iop(6/42=6)

loop1.cluster64 

   0  1 
C         65.45289       44.03946       30.00651
C         66.42890       43.22658       29.21808
O         66.21635       42.03666       29.03203
H         64.55930       43.43514       30.26737
H         65.93968       44.39435       30.93927
H         65.13437       44.91581       29.40368
N         67.52713       43.82579       28.68774
C         68.51130       43.08819       27.91504
C         69.33703       42.22936       28.86043
O         70.06575       42.75788       29.68774
C         69.28970       44.07353       27.01078
C         70.52365       43.50997       26.37411
O         71.67610       44.19906       26.44408
O         70.49810       42.44208       25.79355
H         67.64763       44.84247       28.82017
H         67.98039       42.41815       27.20350
H         69.59811       44.98151       27.56893
H         68.57936       44.39891       26.21379
N         69.23681       40.86953       28.78186
C         69.94504       39.94032       29.65550
C         71.14177       39.31954       28.94194
O         71.87372       38.57035       29.57802
C         68.98196       38.79819       30.08113
C         67.89911       39.17573       31.11263
C         67.05531       37.92224       31.43882
C         66.14274       38.04235       32.67262
N         65.05322       39.00076       32.49722
H         68.64708       40.46480       28.04192
H         70.35889       40.46128       30.54704
H         69.58164       37.98679       30.54806
H         68.50504       38.37376       29.16715
H         67.24597       39.99614       30.74554
H         68.41985       39.51252       32.03434
H         67.75023       37.08548       31.66788
H         66.45450       37.62722       30.54912
H         66.74461       38.30871       33.57036
H         65.70032       37.03676       32.85373
H         65.42100       39.97814       32.51077
H         64.54445       38.81396       31.60321
H         64.37947       38.88407       33.29028
N         71.40313       39.56979       27.62600
C         72.52263       38.97853       26.90528
C         73.46044       40.03700       26.30068
O         74.41893       39.65602       25.64503
C         71.98809       37.95156       25.88209
C         70.88014       38.45712       25.00161
O         69.71087       37.78730       24.95032
O         71.03202       39.46159       24.32809
H         70.76767       40.17506       27.08965
H         73.17565       38.38659       27.58623
H         71.58336       37.08067       26.44824
H         72.82786       37.57539       25.26229
N         73.32167       41.37037       26.58850
C         74.35851       42.35042       26.26565
C         74.45636       42.80143       24.82240
O         75.40186       43.51250       24.50545
H         72.55702       41.67846       27.20028
H         75.33648       41.94310       26.60130
H         74.17587       43.27415       26.85331
N         73.52602       42.46071       23.89105
C         73.63325       42.89168       22.49508
C         73.24124       44.35342       22.24448
O         73.58324       44.86627       21.18844
C         72.87846       41.91781       21.56524
C         71.42186       41.72469       21.87665
O         70.82754       42.40147       22.87077
O         70.78486       40.89433       21.25344
H         72.75770       41.83929       24.17474
H         74.70224       42.79772       22.19510
H         73.35639       40.92167       21.67448
H         72.98163       42.23977       20.50624
N         72.48913       45.06853       23.13592
C         72.09344       46.45943       22.90134
C         70.61308       46.61086       22.59499
O         70.16903       47.73042       22.37766
H         72.14120       44.60588       23.98432
H         72.64164       46.89503       22.03842
H         72.35340       47.06106       23.79749
N         69.80701       45.51855       22.48050
C         68.41512       45.56811       22.06301
C         67.56924       44.66460       23.01956
O         68.03029       43.35807       22.80107
C         68.33480       45.10020       20.56864
C         69.14448       46.01937       19.64236
O         68.83972       43.79654       20.43096
H         70.21755       44.59496       22.60389
H         68.02285       46.60860       22.10837
H         67.26711       45.12369       20.25594
H         68.71974       43.51723       19.48617
H         70.23087       45.92849       19.86171
H         68.99053       45.71229       18.58516
H         68.82969       47.07542       19.75446
N         66.13598       44.74084       22.66360
C         65.19764       43.99432       23.53383
C         64.25334       43.22901       22.60523
O         63.83682       43.77687       21.59684
C         64.36622       44.89457       24.50976
C         65.24273       45.85574       25.34948
C         63.54678       44.00286       25.48851
C         64.40253       46.97528       25.98208
H         65.79235       45.70208       22.43651
H         65.77129       43.30023       24.16503
H         63.68298       45.50832       23.88269
H         65.99188       46.36567       24.71194
H         65.79289       45.28470       26.13101
H         64.23671       43.40631       26.12929
H         62.89837       44.58994       26.16643
H         62.87531       43.30030       24.96129
H         63.96759       47.60635       25.17592
H         63.57224       46.59670       26.60882
H         65.04200       47.61533       26.62244
N         63.84949       41.96689       22.91671
C         63.00673       41.14404       22.05712
C         61.62354       40.92552       22.63999
O         61.35052       41.25491       23.77844
C         63.62936       39.71439       21.84659
C         64.62578       39.58048       20.72278
O         64.16837       39.17835       23.02497
H         64.11663       41.58538       23.81224
H         62.83148       41.64060       21.08238
H         62.84084       39.02376       21.50680
H         65.06783       39.57067       23.17267
H         65.53948       40.10346       20.99158
H         64.85323       38.49722       20.58913
H         64.19323       39.98022       19.78583
N         60.72525       40.26764       21.84801
C         59.47203       39.68036       22.31166
C         59.76449       38.71356       23.44878
O         59.09570       38.77478       24.47465
C         58.79768       38.91463       21.13257
C         58.28015       39.88175       20.05139
O         59.70740       37.99292       20.57440
H         61.00616       40.08375       20.87691
H         58.76840       40.46260       22.67244
H         57.92181       38.36428       21.53904
H         59.30737       37.61500       19.74902
H         57.59808       40.63329       20.50094
H         59.11131       40.40710       19.53599
H         57.70435       39.31245       19.28975
N         60.79309       37.82456       23.35327
C         61.19570       36.91941       24.42254
C         61.51665       37.67965       25.71738
O         60.90660       37.40554       26.73767
C         62.42123       36.09256       23.94714
C         62.92744       35.12095       25.02017
C         64.14420       34.31696       24.53968
C         64.90759       33.66321       25.70617
N         64.08872       32.73708       26.48828
H         61.33475       37.80738       22.47657
H         60.36098       36.21173       24.62128
H         63.25405       36.78335       23.68442
H         62.15271       35.53127       23.02427
H         62.11347       34.42453       25.31768
H         63.23352       35.72323       25.89950
H         64.86832       35.00219       24.04748
H         63.82524       33.55909       23.78919
H         65.29246       34.46411       26.37747
H         65.78440       33.11986       25.29130
H         63.68726       31.99470       25.87241
H         64.69603       32.28839       27.21230
H         63.32442       33.25096       26.98283
N         62.49022       38.63280       25.73418
C         62.89996       39.36776       26.93725
C         61.79676       40.26220       27.48626
O         61.94758       40.75126       28.59817
C         64.11293       40.25982       26.60344
C         65.41356       39.45444       26.33700
C         66.42270       40.30945       25.63811
O         66.03223       41.14239       24.85687
O         67.74277       40.11600       25.70178
H         62.96493       38.83143       24.85934
H         63.19274       38.64135       27.72321
H         64.33227       41.01018       27.39261
H         63.79119       40.84064       25.72239
H         65.21834       38.58967       25.67119
H         65.81945       39.09011       27.30217
N         60.67945       40.55091       26.76008
C         59.61509       41.40352       27.24581
H         58.66974       40.82286       27.26011
H         59.80818       41.79167       28.26721
H         59.49287       42.26787       26.55903
H         60.57715       40.17107       25.81546
Ca        68.53130       41.67742       24.28396
O         67.65248       41.08668       21.37845
H         68.49630       41.58306       21.30557
H         67.41223       40.93662       20.43286

Ca 1.70



