%chk=loop3.cluster95.chk
%nprocshared=48
%mem=10GB
%nosave
#b3lyp/svp scf=(tight,noincore) Test 
#IOP(5/87=12) Density=Current Pop=(MK,readradii) iop(6/33=2) iop(6/42=6)

loop3.cluster95 

   0  1 
C         60.42765       66.19283       73.50187
C         61.47811       65.16760       73.21643
O         62.57027       65.25799       73.76126
H         59.52003       65.71837       73.92688
H         60.81075       66.95989       74.20830
H         60.16845       66.69443       72.54538
N         61.22111       64.15773       72.33973
C         62.26065       63.24069       71.89440
C         61.66119       62.05552       71.16049
O         60.91232       62.24216       70.21015
C         63.26127       64.00691       70.99477
C         64.36033       63.13097       70.45890
O         64.56127       63.06868       69.25618
O         65.13826       62.42664       71.30247
H         60.27276       64.07916       71.93883
H         62.80911       62.84800       72.77931
H         63.73825       64.81410       71.58704
H         62.72067       64.48218       70.14538
N         62.02029       60.78945       71.53378
C         61.62032       59.57286       70.83602
C         61.72722       59.73738       69.33452
O         62.80818       60.08757       68.87403
C         60.30710       58.98670       71.40828
C         60.50598       58.64501       72.89899
C         59.30785       57.95540       73.56953
C         59.07278       56.48282       73.16803
N         60.21488       55.61949       73.49253
H         62.70398       60.68240       72.29841
H         62.38636       58.79896       71.06637
H         60.06595       58.04730       70.86654
H         59.46657       59.70512       71.28232
H         60.69396       59.59564       73.43881
H         61.40788       58.01174       73.03221
H         58.39071       58.55095       73.37052
H         59.48761       57.96767       74.66579
H         58.82919       56.39389       72.08864
H         58.19095       56.12337       73.74521
H         60.47801       55.71902       74.50050
H         59.95144       54.62298       73.31638
H         61.03554       55.84112       72.88602
N         60.68682       59.46553       68.49515
C         60.87622       59.42904       67.05206
C         59.66245       59.91964       66.28910
O         58.64773       60.25518       66.89107
C         61.30216       58.00057       66.65149
C         60.23348       56.97628       66.85644
O         59.65985       56.86165       67.92776
O         59.92872       56.16186       65.83949
H         59.79836       59.11824       68.88503
H         61.71497       60.10167       66.76738
H         62.19149       57.70990       67.24583
H         61.59615       57.97174       65.58052
N         59.70546       59.96593       64.93104
C         58.60441       60.41055       64.10196
C         58.02317       59.24547       63.34654
O         58.76443       58.36284       62.93090
H         60.56428       59.65382       64.45114
H         58.99495       61.15823       63.38043
H         57.80321       60.90802       64.69157
N         56.67939       59.18166       63.13102
C         56.03223       58.07487       62.44228
C         55.38524       58.54287       61.13680
O         54.66795       57.76591       60.52509
C         55.02798       57.37819       63.41393
C         55.69318       56.90352       64.72137
N         56.04486       58.04280       65.57525
O         56.83085       56.20354       64.32083
H         56.08194       59.95142       63.47285
H         56.77230       57.29860       62.14423
H         54.63706       56.46854       62.90774
H         54.17037       58.02642       63.66476
H         55.17321       58.58456       65.78875
H         56.41830       57.70192       66.48944
N         55.67671       59.77340       60.60237
C         55.13791       60.25758       59.33458
C         53.65597       60.53979       59.41238
O         53.24716       61.32519       60.25605
H         56.36332       60.37788       61.07436
H         55.37274       59.53557       58.52418
H         55.63818       61.21838       59.08335
N         52.78334       59.90883       58.56203
C         51.32470       60.07250       58.61552
C         50.74359       59.60574       59.94648
O         49.56958       59.84430       60.18182
C         50.90387       61.51670       58.24167
C         51.38414       61.83416       56.84495
C         50.73517       61.28490       55.72210
C         52.51281       62.64408       56.65890
C         51.22208       61.53564       54.43444
C         53.00808       62.87711       55.37333
C         52.36737       62.31897       54.25712
O         52.85145       62.52166       53.01488
H         53.16437       59.26106       57.85816
H         50.86474       59.41578       57.84485
H         51.31786       62.23408       58.97888
H         49.79634       61.63748       58.26781
H         49.85590       60.66334       55.84468
H         53.02663       63.06613       57.51261
H         50.71947       61.10847       53.57462
H         53.89640       63.48157       55.24637
H         53.66473       63.02426       52.86251
N         51.51478       58.91530       60.84979
C         51.08776       58.37956       62.13540
C         50.33162       57.07168       61.98334
O         50.78903       56.07002       62.51456
C         50.40937       59.42974       63.05473
C         51.24375       60.73729       63.16227
C         50.14551       58.83196       64.44947
C         52.71811       60.55487       63.54725
H         52.49334       58.74111       60.62325
H         52.01689       58.07811       62.66939
H         49.41677       59.70933       62.64282
H         50.75805       61.41244       63.89899
H         51.22633       61.25694       62.18190
H         49.65021       59.58030       65.10267
H         49.46475       57.96175       64.37573
H         51.08450       58.49035       64.93096
H         53.20570       61.54952       63.61192
H         52.82896       60.04013       64.52271
H         53.26081       59.98718       62.76393
N         49.18475       56.99071       61.25787
C         48.42538       55.75383       61.15633
C         47.70581       55.48622       62.47791
O         47.49063       54.33178       62.82768
C         47.46812       55.83987       59.96065
O         46.46044       56.78699       60.20342
H         48.82761       57.81396       60.77492
H         49.13839       54.93177       60.91692
H         47.00989       54.85250       59.74982
H         48.08072       56.12393       59.06637
H         46.37833       57.34829       59.38940
N         47.40968       56.53523       63.31299
C         46.85888       56.44653       64.66156
C         47.71978       55.65876       65.65692
O         47.28834       55.48883       66.78574
C         45.39863       55.97627       64.65300
H         47.60072       57.48963       62.97394
H         46.80819       57.48596       65.05460
H         45.29845       54.89387       64.44238
H         44.94567       56.19255       65.64813
H         44.82022       56.56068       63.90445
N         48.95532       55.17114       65.32023
C         49.74738       54.36645       66.24605
C         50.63959       55.20910       67.14363
O         50.83260       56.39080       66.89900
C         50.61331       53.37269       65.45344
H         49.33742       55.34056       64.38731
H         49.06176       53.77016       66.88692
H         49.96743       52.69257       64.85928
H         51.28998       53.91482       64.75572
H         51.23732       52.75146       66.12991
N         51.22461       54.60738       68.22347
C         52.21970       55.19917       69.11937
C         51.79070       56.41050       69.94117
O         52.59151       56.85285       70.75516
C         53.54859       55.44958       68.38019
C         54.02279       54.14719       67.71320
C         55.42026       54.22642       67.20342
O         56.32980       54.96559       67.86725
O         55.79981       53.40181       66.38950
H         50.99683       53.61661       68.39309
H         52.45249       54.42040       69.88100
H         54.30203       55.76369       69.13728
H         53.46062       56.25967       67.62255
H         53.33984       53.89187       66.87527
H         54.00503       53.31188       68.44533
N         50.56220       56.99175       69.82144
C         50.16307       58.13254       70.62570
H         49.22174       57.89291       71.16183
H         50.92383       58.41651       71.38466
H         49.99218       59.00639       69.96402
H         49.87788       56.62966       69.14831
Ca        58.04582       55.02569       65.78598
O         60.63486       53.24636       64.76446
H         61.41158       53.59646       65.26854
H         61.03054       52.64743       64.08285
O         58.16841       51.77139       67.09187
H         58.14909       50.81821       66.82733
H         58.54136       51.76508       68.00831
O         55.50538       53.73741       63.38085
H         55.58650       53.20738       62.54898
H         55.05904       53.12866       64.01850
O         58.74318       54.54679       62.60273
H         57.77195       54.51686       62.77477
H         58.81793       54.31957       61.64340
O         60.15857       53.72291       67.77931
H         59.97051       54.49820       68.36092
H         61.12839       53.56254       67.88502
O         57.97732       51.79656       64.16322
H         58.53061       51.01020       63.92875
H         57.11247       51.62920       63.71400

Ca 1.70



