%chk=loop3.cluster160.chk
%nprocshared=48
%mem=10GB
%nosave
#b3lyp/svp scf=(tight,noincore) Test 
#IOP(5/87=12) Density=Current Pop=(MK,readradii) iop(6/33=2) iop(6/42=6)

loop3.cluster160 

   0  1 
C        101.98569      -22.72475       66.43647
C        100.86126      -23.03163       65.49474
O        100.16759      -22.11296       65.07956
H        102.75605      -22.15778       65.87281
H        101.63167      -22.10975       67.28973
H        102.45292      -23.65267       66.82867
N        100.64667      -24.30979       65.07462
C         99.66939      -24.65445       64.05228
C         98.57055      -25.52612       64.63763
O         98.85048      -26.43472       65.41268
C        100.38975      -25.33570       62.88461
C         99.44718      -25.60623       61.75822
O         98.89176      -26.81775       61.64262
O         99.17768      -24.73293       60.94910
H        101.24593      -25.06481       65.44676
H         99.19806      -23.73521       63.63734
H        100.84538      -26.28922       63.22657
H        101.20589      -24.68526       62.50073
N         97.27103      -25.24219       64.34501
C         96.13463      -25.85689       65.02490
C         95.78702      -27.27334       64.58561
O         94.98187      -27.90053       65.25478
C         94.88262      -24.94580       64.86911
C         94.38781      -24.34712       66.18557
C         95.41939      -23.42323       66.85240
C         94.77533      -22.69918       68.03842
N         95.71351      -21.77017       68.66325
H         97.09870      -24.46329       63.69040
H         96.40080      -25.94102       66.10081
H         94.04098      -25.50124       64.40151
H         95.07373      -24.09922       64.17307
H         94.09033      -25.15986       66.88344
H         93.48569      -23.74758       65.93706
H         95.76959      -22.66672       66.11735
H         96.30092      -24.00195       67.20549
H         94.43010      -23.44431       68.78913
H         93.89172      -22.12765       67.67560
H         96.01361      -21.04599       67.97045
H         95.23493      -21.29462       69.46189
H         96.54866      -22.28666       69.02222
N         96.28772      -27.80703       63.43747
C         95.92405      -29.14833       62.97511
C         97.14716      -30.04125       62.71770
O         96.95120      -31.20731       62.39109
C         94.97831      -29.02678       61.75433
C         95.51501      -28.17285       60.64501
O         94.89682      -27.19629       60.25635
O         96.67481      -28.47560       60.07330
H         96.88004      -27.22702       62.83918
H         95.33418      -29.68290       63.74993
H         94.02497      -28.56154       62.08906
H         94.74020      -30.04078       61.36649
N         98.43230      -29.59224       62.86919
C         99.61044      -30.43760       62.68517
C         99.82114      -30.98576       61.27885
O        100.77107      -31.73078       61.08535
H         98.59733      -28.62786       63.18245
H         99.54847      -31.29185       63.39228
H        100.51732      -29.84705       62.94476
N         98.99881      -30.64039       60.24688
C         99.11108      -31.17476       58.89842
C         99.77118      -30.10623       57.98645
O         98.86469      -29.08601       57.68139
C         97.70998      -31.71635       58.43028
C         97.07148      -31.07282       57.21228
N         96.15716      -30.08282       57.34460
O         97.37178      -31.46597       56.09624
H         98.26858      -29.96458       60.41861
H         99.80361      -32.04610       58.92699
H         96.98427      -31.67760       59.27296
H         97.77522      -32.80553       58.22609
H         95.88498      -29.73855       58.27034
H         95.72694      -29.65240       56.51260
N        100.19258      -30.71439       56.73029
C        101.03073      -29.81852       55.92509
C        101.14339      -30.34521       54.51434
O        102.00864      -29.89368       53.77737
H        100.73154      -31.59729       56.90231
H        102.03990      -29.76435       56.39321
H        100.61153      -28.79117       55.86525
N        100.30718      -31.33174       54.07731
C        100.43440      -31.96177       52.78029
C         99.92511      -31.05994       51.67765
O         98.81140      -30.56093       51.75233
C         99.65996      -33.28357       52.77957
C        100.05328      -34.21998       51.66382
C         99.12041      -34.60453       50.69093
C        101.34554      -34.77873       51.64170
C         99.46113      -35.56479       49.73218
C        101.67937      -35.74454       50.69036
C        100.73149      -36.15328       49.74250
O        101.02624      -37.12204       48.85209
H         99.58733      -31.70109       54.71217
H        101.50654      -32.22306       52.64040
H         98.56913      -33.07154       52.78867
H         99.89941      -33.83392       53.71585
H         98.12554      -34.17836       50.68975
H        102.08073      -34.49644       52.38570
H         98.72796      -35.87276       48.99835
H        102.66600      -36.19171       50.70526
H        101.87138      -37.59405       48.87722
N        100.70486      -30.87308       50.59193
C        100.42575      -30.03501       49.43746
C         99.21711      -30.41389       48.60402
O         98.31179      -31.10989       49.03526
C        100.53052      -28.48966       49.69020
C        101.73407      -28.10562       50.57333
C         99.24859      -27.82136       50.22111
C        103.06853      -28.64257       50.05164
H        101.59745      -31.38752       50.56746
H        101.27795      -30.26011       48.76030
H        100.70369      -28.00322       48.70416
H        101.57722      -28.45837       51.61361
H        101.80145      -26.99641       50.58939
H         98.93362      -28.22201       51.19913
H         99.41855      -26.72813       50.34237
H         98.41985      -27.93130       49.48840
H        103.20991      -28.36809       48.98509
H        103.89569      -28.21215       50.65091
H        103.12611      -29.74469       50.15045
N         99.18493      -29.89574       47.35517
C         98.11945      -30.02419       46.38229
C         98.69886      -30.44711       45.02182
O         98.04609      -31.20044       44.30873
C         97.44690      -28.64592       46.30969
O         98.37612      -27.64897       45.96259
H         99.96533      -29.28690       47.11161
H         97.33461      -30.74692       46.70637
H         97.00650      -28.43878       47.31807
H         96.61096      -28.63715       45.58280
H         98.43544      -27.01350       46.72454
N         99.91331      -29.96853       44.58962
C        100.54795      -30.28186       43.31910
C         99.68000      -29.93570       42.12846
O         99.32252      -30.82363       41.36853
C        101.13695      -31.69709       43.30748
H        100.44000      -29.31748       45.17756
H        101.44757      -29.63884       43.19968
H        100.40310      -32.47652       43.58628
H        101.55893      -31.91852       42.30142
H        101.98995      -31.72524       44.02284
N         99.38486      -28.63771       41.82068
C         99.72156      -27.48564       42.65752
C        100.88324      -26.69107       42.07224
O        100.83936      -26.42790       40.87889
C         98.48839      -26.58964       42.75323
H         98.90201      -28.45593       40.92530
H         99.91740      -27.78161       43.67991
H         98.69695      -25.72057       43.41267
H         98.19969      -26.21778       41.74665
H         97.63816      -27.16414       43.17891
N        101.92963      -26.18506       42.81100
C        102.14599      -26.31741       44.25700
C        103.58995      -26.71679       44.52153
O        103.82177      -27.75171       45.13087
C        101.81342      -24.97830       44.95280
C        101.93244      -25.06396       46.48637
C        101.54849      -23.76341       47.13266
O        100.50652      -23.71554       47.98492
O        102.18495      -22.74830       46.89785
H        102.59879      -25.58792       42.30143
H        101.49395      -27.07669       44.71491
H        100.76282      -24.71174       44.70409
H        102.47168      -24.16915       44.56823
H        102.97348      -25.31208       46.78529
H        101.25854      -25.86569       46.86091
N        104.61522      -25.92485       44.08442
C        106.01303      -26.24399       44.29561
H        106.51173      -25.39610       44.81187
H        106.15786      -27.15985       44.90469
H        106.50081      -26.39278       43.30949
H        104.40263      -25.06051       43.56620
Ca        98.78867      -27.30530       59.06933
O        100.00936      -25.61834       57.36301
H        100.69134      -26.30492       57.15208
H         99.67631      -25.30985       56.48485
O         96.95605      -24.68362       58.90587
H         96.17253      -24.32019       59.38983
H         97.20938      -23.96948       58.26846
O         97.05988      -27.18443       56.85114
H         96.10110      -27.27297       56.62799
H         97.54142      -27.41409       56.01692
O        101.18499      -27.65582       60.04696
H        101.60598      -27.83845       59.16995
H        101.91946      -27.40007       60.65382

Ca 1.70



