%chk=loop1.cluster134.chk
%nprocshared=48
%mem=10GB
%nosave
#b3lyp/svp scf=(tight,noincore) Test 
#IOP(5/87=12) Density=Current Pop=(MK,readradii) iop(6/33=2) iop(6/42=6)

loop1.cluster134 

   0  1 
C         48.11578       -7.70204       24.76389
C         48.47108       -8.55746       25.94081
O         48.53208       -9.76597       25.80131
H         47.18959       -7.13418       24.98816
H         48.94284       -6.98993       24.55688
H         47.94941       -8.32466       23.85865
N         48.74713       -7.97979       27.14234
C         49.16963       -8.72914       28.32828
C         48.06696       -9.54779       29.01474
O         48.34967      -10.13449       30.04961
C         49.82434       -7.78761       29.37066
C         48.91688       -6.72866       29.92559
O         48.52572       -6.79828       31.21160
O         48.58281       -5.77443       29.24083
H         48.73360       -6.95161       27.17807
H         49.98067       -9.43156       28.03428
H         50.72434       -7.29760       28.94288
H         50.17366       -8.41407       30.21979
N         46.80299       -9.65458       28.50371
C         45.73222      -10.35768       29.20772
C         45.16173      -11.55668       28.40433
O         44.00551      -11.46141       28.01414
C         44.63002       -9.29431       29.49071
C         45.15133       -8.12861       30.35937
C         44.10045       -7.01643       30.51635
C         44.57171       -5.85111       31.41112
N         45.63686       -5.05899       30.79412
H         46.56701       -9.19356       27.61573
H         46.05417      -10.73228       30.19463
H         43.76348       -9.76596       30.00637
H         44.27333       -8.88664       28.51757
H         46.05144       -7.69160       29.88673
H         45.42749       -8.52755       31.36014
H         43.19364       -7.45793       30.98049
H         43.81934       -6.61286       29.51809
H         44.90882       -6.24090       32.39785
H         43.70573       -5.17789       31.58767
H         45.33618       -4.70176       29.85864
H         45.86577       -4.24522       31.41012
H         46.49411       -5.63070       30.68574
N         45.81996      -12.74326       28.12752
C         47.19269      -13.16495       28.44648
C         47.49021      -13.34360       29.93879
O         46.68965      -12.93016       30.75798
C         48.20601      -12.30565       27.68250
C         48.74350      -12.95654       26.46814
O         49.74896      -13.82165       26.59696
O         48.43480      -12.55205       25.35735
H         45.27244      -13.44342       27.60035
H         47.27496      -14.20503       28.05981
H         49.07797      -11.99848       28.29418
H         47.69614      -11.41800       27.31499
N         48.58410      -14.04791       30.38273
C         49.57059      -14.65278       29.49445
C         50.58600      -15.54131       30.18812
O         50.42228      -15.84469       31.36450
H         48.69186      -14.17161       31.40243
H         50.11278      -13.84189       28.99004
H         49.06374      -15.31324       28.75589
N         51.65581      -16.06399       29.51823
C         52.02109      -15.68047       28.15318
C         52.64167      -14.28974       28.18289
O         52.18998      -13.41712       27.45758
C         52.97234      -16.73939       27.54711
C         53.35647      -16.49824       26.10952
O         54.42460      -17.13528       25.59619
O         52.59710      -15.91820       25.35637
H         52.27177      -16.72339       30.01762
H         51.12199      -15.70345       27.50450
H         52.44585      -17.71982       27.56495
H         53.89436      -16.83806       28.15329
N         53.65321      -13.99093       29.04738
C         54.20778      -12.65352       29.20285
C         55.06301      -12.14777       28.05750
O         55.71494      -11.13309       28.24144
H         53.97823      -14.72214       29.69968
H         54.83703      -12.64430       30.11763
H         53.39160      -11.91262       29.36515
N         55.07921      -12.76565       26.83931
C         55.74282      -12.17177       25.68240
C         54.72789      -11.94533       24.57530
O         53.66053      -12.53689       24.59149
C         56.89433      -13.07151       25.18254
C         56.39383      -14.41745       24.62798
O         57.84068      -13.25745       26.20754
H         54.55765      -13.63265       26.69582
H         56.17425      -11.18329       25.95203
H         57.41526      -12.55893       24.34387
H         57.55698      -14.02966       26.76353
H         55.75415      -14.24232       23.74133
H         57.25003      -15.05344       24.32787
H         55.79934      -14.96214       25.38533
N         55.04082      -11.11295       23.54948
C         54.18242      -10.92037       22.38999
C         54.95725      -11.40635       21.17729
O         55.47539      -10.60677       20.40969
C         53.61777       -9.46114       22.34991
C         52.67850       -9.25302       21.12785
C         54.69877       -8.37067       22.45173
C         52.06804       -7.84977       21.06885
H         55.93949      -10.61254       23.58086
H         53.27376      -11.56163       22.44320
H         52.98809       -9.34896       23.26294
H         51.84581       -9.98302       21.19436
H         53.20868       -9.43758       20.17023
H         55.35590       -8.35927       21.56206
H         54.22634       -7.37372       22.56782
H         55.30357       -8.49810       23.37029
H         52.85206       -7.09610       20.84565
H         51.31797       -7.79149       20.25346
H         51.57588       -7.59932       22.03241
N         55.04007      -12.75110       20.94089
C         55.69420      -13.33380       19.77353
C         54.68804      -13.91187       18.77247
O         55.10790      -14.35081       17.71387
C         56.69234      -14.45926       20.19815
C         56.02059      -15.67699       20.85914
O         57.65753      -13.96794       21.08896
H         54.56088      -13.38301       21.59384
H         56.26034      -12.54449       19.23187
H         57.19344      -14.84370       19.28028
H         58.16465      -13.26607       20.60874
H         56.75397      -16.49958       20.99104
H         55.61247      -15.42881       21.85153
H         55.19917      -16.07484       20.24866
N         53.35250      -13.97665       19.06328
C         52.34860      -14.65125       18.23345
C         52.58355      -16.16682       18.21822
O         53.62184      -16.63260       18.64524
C         52.21164      -14.04463       16.80344
C         52.00680      -12.52594       16.83403
O         51.10953      -14.62265       16.15098
H         53.01315      -13.57754       19.94519
H         51.37813      -14.50058       18.75510
H         53.13441      -14.27094       16.22623
H         51.14632      -14.35391       15.19659
H         51.92194      -12.14738       15.79169
H         51.07289      -12.26976       17.37770
H         52.86856      -12.01727       17.31168
N         51.60564      -16.99380       17.75921
C         51.73309      -18.44175       17.69277
C         50.75533      -19.30630       18.50782
O         51.00294      -20.50671       18.47181
C         51.61724      -18.84291       16.20178
C         52.97202      -18.76159       15.49705
C         52.81176      -18.96507       13.98940
C         54.17803      -19.07818       13.30614
N         54.02353      -19.22887       11.86063
H         50.77291      -16.57509       17.37057
H         52.72331      -18.76435       18.08509
H         50.85214      -18.20040       15.70834
H         51.27312      -19.89297       16.07669
H         53.61084      -19.57003       15.92206
H         53.46422      -17.78326       15.68114
H         52.25034      -18.09870       13.57443
H         52.23523      -19.89451       13.78757
H         54.71563      -19.96499       13.71212
H         54.78477      -18.17068       13.51987
H         53.55277      -18.38372       11.46303
H         54.96820      -19.32891       11.42452
H         53.45795      -20.08210       11.64514
N         49.65602      -18.94158       19.24522
C         49.03363      -17.65493       19.54154
C         48.63608      -16.86139       18.31451
O         48.80238      -15.64477       18.29327
C         49.81272      -16.87229       20.61066
C         48.84765      -15.99292       21.41286
C         49.59251      -15.08577       22.29820
O         50.14069      -14.09982       21.83851
O         49.54447      -15.25695       23.61327
H         49.14905      -19.73671       19.66805
H         48.07024      -17.93874       20.02513
H         50.64076      -16.29929       20.15158
H         50.26591      -17.57774       21.34579
H         48.20501      -16.66366       22.02903
H         48.19200      -15.36166       20.78317
N         48.18271      -17.50299       17.20600
C         47.94438      -16.80326       15.96314
H         47.15577      -16.03471       16.09479
H         48.88342      -16.31551       15.61808
H         47.62868      -17.52590       15.18223
H         48.06002      -18.52660       17.22759
Ca        50.88600      -13.97519       24.75895
O         50.52433      -11.44727       23.28250
H         49.71039      -10.95929       23.56137
H         50.47625      -11.45909       22.29515
O         52.87732      -14.78981       22.62253
H         53.44100      -15.57741       22.43782
H         52.35802      -14.69738       21.79138
O         51.58059      -11.15610       26.15983
H         52.31373      -10.51112       26.31366
H         50.80235      -10.59613       25.93186

Ca 1.70



