%chk=loop2.cluster15.chk
%nprocshared=48
%mem=10GB
%nosave
#b3lyp/svp scf=(tight,noincore) Test 
#IOP(5/87=12) Density=Current Pop=(MK,readradii) iop(6/33=2) iop(6/42=6)

loop2.cluster15 

   -2  1 
C         66.34177       88.82575       98.76958
C         67.52602       88.59252       99.66171
O         67.39242       87.88128      100.64473
H         65.51679       89.26666       99.37127
H         66.58437       89.53340       97.94963
H         65.99615       87.86685       98.33269
N         68.72561       89.18350       99.39385
C         69.86442       89.09865      100.30687
C         69.51017       89.78528      101.62160
O         69.80723       89.26024      102.68317
C         71.10993       89.73932       99.68433
C         72.31600       89.49063      100.54901
O         72.93891       90.51954      101.15106
O         72.72310       88.35127      100.72119
H         68.81868       89.74616       98.53430
H         70.12495       88.04018      100.47031
H         70.93628       90.82750       99.55213
H         71.30655       89.28874       98.68540
N         68.76035       90.92497      101.59301
C         68.15159       91.55431      102.75949
C         67.32108       90.55918      103.57235
O         67.45257       90.49715      104.78751
C         69.16798       92.33936      103.59060
H         68.50669       91.31433      100.67252
H         67.46152       92.30340      102.34915
H         68.64471       92.85544      104.42568
H         69.95537       91.67776      104.00328
H         69.63821       93.12032      102.95478
N         66.47712       89.70382      102.92567
C         65.72099       88.62398      103.56380
C         66.62198       87.78707      104.46370
O         66.29867       87.57369      105.62549
C         64.47611       89.15189      104.30961
C         63.66655       90.08847      103.46360
O         63.34791       91.30836      103.93771
O         63.29318       89.75085      102.35144
H         66.42707       89.76583      101.90002
H         65.34597       87.96999      102.74423
H         64.76176       89.68464      105.24210
H         63.83975       88.28161      104.58369
N         67.82695       87.35566      103.99889
C         68.85676       86.85464      104.89024
C         68.83771       85.36205      105.04687
O         68.01078       84.68238      104.45694
H         68.09959       87.60512      103.04211
H         68.74115       87.31381      105.89898
H         69.85267       87.17689      104.51853
N         69.73744       84.79607      105.89723
C         69.73509       83.39750      106.31038
C         69.98429       82.44260      105.15836
O         69.23206       81.49583      104.96654
C         68.44837       83.08598      107.10071
C         68.22191       84.13729      108.16153
N         67.12962       84.93621      108.11013
O         69.04810       84.29420      109.04833
H         70.42512       85.41599      106.35390
H         70.58963       83.27166      107.01203
H         68.52230       82.08192      107.57132
H         67.58396       83.07711      106.40584
H         66.43364       84.82824      107.35745
H         66.99139       85.67687      108.81289
N         71.07460       82.62431      104.36662
C         71.44968       81.72350      103.28815
C         70.60620       81.83686      102.04030
O         71.04268       81.34402      101.00891
H         71.70320       83.41671      104.56937
H         71.51385       80.67231      103.64034
H         72.46839       82.03029      102.96734
N         69.40945       82.48778      102.03083
C         68.69597       82.77733      100.80157
C         67.41226       81.99031      100.72784
O         66.96595       81.44505      101.72604
C         68.38737       84.29588      100.78407
C         69.66278       85.12468      100.94376
O         67.73487       84.65603       99.59445
H         69.00091       82.84045      102.90190
H         69.30921       82.50391       99.91566
H         67.72221       84.51708      101.65537
H         67.38257       85.57381       99.72429
H         69.36764       86.17794      101.03796
H         70.21064       84.86889      101.87509
H         70.33311       84.98518      100.07038
N         66.74063       81.93665       99.54720
C         65.38979       81.40068       99.42099
C         64.47434       82.11430      100.40251
O         64.56968       83.32408      100.56196
C         64.84280       81.49541       97.96110
C         65.03690       82.90726       97.33267
C         65.47358       80.38699       97.09598
C         64.30710       83.09918       96.00879
H         67.20094       82.34691       98.72767
H         65.38962       80.32358       99.70513
H         63.75351       81.27017       98.00940
H         66.10763       83.11671       97.13432
H         64.65659       83.67996       98.03089
H         65.26268       79.39200       97.54739
H         65.03223       80.36466       96.07993
H         66.57311       80.51261       97.01536
H         63.21596       82.96707       96.15573
H         64.49916       84.12977       95.64073
H         64.67299       82.39431       95.23623
N         63.59622       81.38284      101.14299
C         62.84463       81.90845      102.26560
C         63.07258       80.95040      103.43139
O         62.13294       80.44354      104.02603
C         61.35650       82.06427      101.90029
C         60.52915       82.66731      103.01277
O         61.10872       83.12493      104.14222
O         59.31851       82.74663      102.88743
H         63.52362       80.37895      100.96036
H         63.23465       82.91409      102.54422
H         60.95270       81.06474      101.63644
H         61.26022       82.72859      101.01245
N         64.34773       80.67810      103.80027
C         64.69587       79.91536      104.98755
C         64.42555       78.40953      104.92473
O         63.72204       77.95199      105.82153
C         66.16287       80.21788      105.33792
C         66.71222       79.45519      106.51325
C         67.54843       78.35936      106.27220
C         66.44981       79.84375      107.83626
C         68.12107       77.65351      107.32360
C         67.04709       79.14653      108.89641
C         67.88209       78.05240      108.63770
H         65.10264       81.13545      103.27523
H         64.10561       80.32559      105.83835
H         66.28046       81.30678      105.51930
H         66.80015       80.00529      104.46327
H         67.75508       78.05841      105.26541
H         65.81552       80.69661      108.04379
H         68.76124       76.80657      107.11315
H         66.87273       79.45778      109.91729
H         68.34922       77.51605      109.45222
N         64.99358       77.52487      104.02961
C         65.75890       77.83423      102.81821
C         64.83752       77.71450      101.59140
O         65.31625       77.45846      100.49272
C         66.75192       76.65083      102.81408
C         65.92615       75.46501      103.31768
C         64.96973       76.10083      104.32310
H         66.30697       78.78965      102.79678
H         67.28403       76.45599      101.85725
H         67.53114       76.84647      103.56804
H         65.33653       75.05822      102.47237
H         66.54640       74.64872      103.75884
H         63.94839       75.66078      104.27024
H         65.38312       75.95014      105.34502
N         63.48804       77.77356      101.75187
C         62.52030       77.23173      100.80379
C         62.36461       77.98563       99.49638
O         62.24652       79.19970       99.49583
C         61.12583       77.14848      101.47274
C         61.08408       76.33945      102.79502
C         61.45266       74.88210      102.67742
O         61.47613       74.11952      103.78612
O         61.71990       74.37791      101.59876
H         63.13390       78.07649      102.66467
H         62.83520       76.19818      100.56162
H         60.40664       76.69141      100.75916
H         60.78218       78.18386      101.69458
H         60.05407       76.39749      103.20183
H         61.74278       76.79487      103.55981
N         62.15128       77.28651       98.34803
C         61.82882       77.94883       97.10293
H         60.93353       78.59540       97.23806
H         62.68628       78.56585       96.76551
H         61.59196       77.19181       96.32536
H         62.15179       76.25548       98.37129
Ca        62.59993       92.38806      101.37443
O         65.02873       93.26500      102.17498
H         64.51490       94.10068      102.29123
H         65.72511       93.33421      102.86693
O         60.18724       91.78301      102.76632
H         59.32395       92.24646      102.90435
H         60.05644       90.87878      103.14685
O         60.71659       91.75062       99.56138
H         61.04697       92.01979       98.66820
H         59.75135       91.57463       99.44472
O         62.24354       94.41157      103.57013
H         62.42655       95.37753      103.45238
H         61.53737       94.36985      104.26174
O         60.74157       94.48511      100.94399
H         60.37701       95.14034      101.58946
H         60.45908       94.81595      100.05549

Ca 1.70



