%chk=loop3.cluster41.chk
%nprocshared=48
%mem=10GB
%nosave
#b3lyp/svp scf=(tight,noincore) Test 
#IOP(5/87=12) Density=Current Pop=(MK,readradii) iop(6/33=2) iop(6/42=6)

loop3.cluster41 

   0  1 
C         60.41429       45.72352       34.78801
C         60.17098       44.88570       36.00450
O         60.81825       43.86225       36.17489
H         61.49595       45.95641       34.69764
H         60.06405       45.17252       33.89439
H         59.86358       46.68762       34.85385
N         59.23799       45.27513       36.90834
C         59.02063       44.58004       38.16255
C         58.54303       43.12839       37.98726
O         57.47952       42.89445       37.43304
C         58.00370       45.37677       38.98534
C         58.04578       45.02726       40.41887
O         57.95891       46.01349       41.29748
O         58.48432       43.96024       40.78060
H         58.71071       46.14364       36.72427
H         59.99365       44.61289       38.70869
H         56.97325       45.27357       38.58538
H         58.27276       46.45564       38.94623
N         59.31418       42.11153       38.46391
C         58.99478       40.68173       38.39732
C         57.84866       40.21615       39.30126
O         57.41098       39.08188       39.15285
C         60.26194       39.88943       38.83374
C         61.47339       40.05215       37.89476
C         61.15085       39.51758       36.49944
C         62.37076       39.48199       35.58094
N         61.94212       39.22961       34.20481
H         60.22209       42.36973       38.84208
H         58.70293       40.43415       37.35938
H         60.04132       38.80424       38.90750
H         60.55885       40.23470       39.85257
H         62.32272       39.48394       38.33101
H         61.78722       41.11478       37.80912
H         60.39120       40.17889       36.03952
H         60.74199       38.48484       36.57448
H         63.06088       38.67920       35.92720
H         62.91536       40.45123       35.61286
H         61.29325       38.40998       34.16029
H         61.44676       40.07836       33.84297
H         62.77570       39.04507       33.60384
N         57.40781       40.98242       40.33141
C         56.43589       40.54619       41.33043
C         55.28428       41.55528       41.55246
O         54.28412       41.17917       42.14756
C         57.18667       40.28592       42.65814
C         57.94130       41.50734       43.13983
O         59.08658       41.92669       42.55825
O         57.48131       42.15490       44.05153
H         57.87299       41.86502       40.47631
H         55.96715       39.58465       41.01526
H         57.89597       39.43598       42.55640
H         56.43790       39.99056       43.42765
N         55.35741       42.84404       41.09823
C         54.28378       43.82476       41.23910
C         54.20714       44.54923       42.57862
O         53.36731       45.43190       42.70848
H         56.17866       43.14068       40.57213
H         53.31352       43.38033       40.93565
H         54.50299       44.64241       40.51654
N         55.09934       44.31043       43.58630
C         55.15557       45.11182       44.81741
C         55.55334       46.57136       44.55017
O         55.53879       47.37448       45.47049
C         56.08771       44.44005       45.87062
C         57.57193       44.45141       45.59657
N         58.40349       43.69302       46.34829
O         58.02873       45.12814       44.69666
H         55.76632       43.55033       43.46326
H         54.13783       45.10249       45.26444
H         55.76559       43.38006       45.95232
H         55.95242       44.91486       46.86418
H         58.03304       43.08610       47.09300
H         59.41512       43.68964       46.16205
N         55.91210       46.97497       43.29786
C         56.26491       48.33529       42.95163
C         57.60161       48.75022       43.50302
O         57.78628       49.91972       43.81273
H         55.93607       46.29636       42.53211
H         55.44537       49.04965       43.17143
H         56.40778       48.35062       41.84530
N         58.63186       47.85820       43.49106
C         60.01893       48.24427       43.52917
C         60.81344       47.30878       42.56320
O         61.08913       46.05516       43.14463
C         60.52715       48.44262       44.98292
C         60.71814       47.22859       45.87712
C         59.84341       46.98096       46.95357
C         61.83921       46.39589       45.71216
C         60.09485       45.92548       47.84239
C         62.07627       45.34193       46.59457
C         61.21697       45.11048       47.66759
O         61.47406       44.11568       48.54137
H         58.43354       46.90277       43.22345
H         60.06974       49.25356       43.05380
H         59.80169       49.13012       45.46976
H         61.49734       48.98171       44.96751
H         58.97962       47.61220       47.11647
H         62.54913       46.58022       44.91794
H         59.42760       45.74855       48.67597
H         62.93839       44.71200       46.46661
H         62.26998       43.56771       48.46274
N         62.06183       47.96506       42.16034
C         63.07878       47.18650       41.43985
C         64.15716       46.84763       42.43302
O         64.66692       47.73984       43.10221
C         63.67082       47.99920       40.24569
C         62.60227       48.15932       39.13421
C         64.94240       47.32019       39.68240
C         62.98239       49.19991       38.07916
H         62.08422       49.00753       42.05906
H         62.65216       46.24730       41.01300
H         63.96383       49.00354       40.62473
H         61.65043       48.50639       39.58534
H         62.40921       47.17754       38.64294
H         65.73703       47.27358       40.45793
H         64.72067       46.28446       39.34722
H         65.37610       47.89278       38.84036
H         63.16040       50.18049       38.57044
H         63.88503       48.90742       37.50658
H         62.14310       49.31734       37.36147
N         64.59787       45.56746       42.53459
C         65.73462       45.16914       43.34080
C         66.77381       44.52053       42.45544
O         66.58022       44.43126       41.24888
C         65.30465       44.23330       44.47499
O         64.78329       43.03528       43.97586
H         64.16359       44.85428       41.93700
H         66.20110       46.05499       43.82474
H         64.58233       44.77456       45.11510
H         66.15263       43.98502       45.14286
H         63.81126       43.07282       44.13142
N         67.92582       44.06210       42.99235
C         69.04207       43.54278       42.21759
C         68.70493       42.33864       41.33691
O         68.94506       42.40791       40.14276
C         70.17517       43.20866       43.18387
H         68.04217       44.15362       44.01549
H         69.40343       44.35359       41.54483
H         69.84074       42.44415       43.91859
H         71.06855       42.84605       42.64046
H         70.44656       44.13203       43.74323
N         68.15935       41.20157       41.86004
C         67.85471       40.02584       41.02903
C         66.92555       40.36495       39.87754
O         67.02024       39.75101       38.81966
C         67.19642       38.93694       41.88617
H         67.94806       41.17071       42.86665
H         68.80353       39.61599       40.61674
H         67.84988       38.67693       42.74494
H         66.21947       39.29612       42.27808
H         67.02098       38.01631       41.28765
N         65.97488       41.32084       40.03174
C         65.02753       41.69463       38.99060
C         65.76365       42.36456       37.83978
O         65.57100       41.98437       36.69541
C         63.94040       42.63929       39.54825
C         63.25892       42.07275       40.81221
C         62.19652       42.99750       41.29730
O         61.21656       43.22179       40.62425
O         62.32242       43.59865       42.48245
H         65.93327       41.80286       40.93924
H         64.49210       40.78484       38.63514
H         63.17568       42.79329       38.75449
H         64.37853       43.62770       39.79844
H         63.98825       41.98292       41.63832
H         62.83017       41.06477       40.63045
N         66.68648       43.33552       38.10483
C         67.49460       43.97556       37.08846
H         68.53738       43.60265       37.17880
H         67.12475       43.77900       36.06238
H         67.50647       45.07295       37.26320
H         66.88459       43.57736       39.07928
Ca        59.83465       44.08234       42.99529
O         61.15706       42.46816       44.87628
H         61.98655       42.66704       45.37392
H         60.77087       41.68307       45.33626

Ca 1.70



