%chk=loop3.cluster55.chk
%nprocshared=48
%mem=10GB
%nosave
#b3lyp/svp scf=(tight,noincore) Test 
#IOP(5/87=12) Density=Current Pop=(MK,readradii) iop(6/33=2) iop(6/42=6)

loop3.cluster55 

   0  1 
C         94.88254       69.81585       27.71566
C         95.33904       68.65185       28.53817
O         94.65344       68.25149       29.46917
H         93.91348       70.21277       28.07996
H         95.64952       70.61737       27.78637
H         94.78358       69.50886       26.65330
N         96.52762       68.06322       28.24373
C         97.09414       66.97947       29.03734
C         97.47295       67.42386       30.45893
O         97.76295       66.55708       31.26595
C         98.27450       66.28549       28.29905
C         99.35731       67.20525       27.78531
O        100.57070       67.21026       28.36379
O         99.17874       67.85662       26.76673
H         97.03462       68.41564       27.42522
H         96.31345       66.19326       29.15130
H         97.88055       65.72745       27.42008
H         98.72367       65.52437       28.97300
N         97.45955       68.74356       30.84201
C         97.67417       69.20331       32.22407
C         98.97976       68.75220       32.84557
O         99.92332       68.41929       32.14211
C         97.62062       70.74039       32.31272
C         96.20330       71.29966       32.16522
C         96.23191       72.82999       32.23008
C         94.84586       73.42873       31.96821
N         94.88482       74.88891       32.05812
H         97.24700       69.45607       30.13433
H         96.86902       68.76685       32.85951
H         98.28914       71.15397       31.52350
H         98.00184       71.08227       33.29990
H         95.58039       70.92492       33.00470
H         95.75857       70.96643       31.20405
H         96.92811       73.21298       31.45258
H         96.60216       73.14930       33.22990
H         94.10538       73.03450       32.69977
H         94.52252       73.13171       30.94581
H         95.02156       75.17979       33.05353
H         95.66086       75.27371       31.47139
H         93.97866       75.27851       31.71199
N         99.02226       68.59129       34.20443
C        100.08917       67.87794       34.89684
C         99.57507       66.46761       35.15802
O         99.65813       65.95335       36.26012
C        100.58463       68.65584       36.14677
C         99.47551       69.28065       36.94650
O         99.46196       70.48760       37.12361
O         98.46812       68.53219       37.41583
H         98.17100       68.81740       34.74367
H        100.96623       67.72878       34.23280
H        101.24130       69.48734       35.81340
H        101.19629       67.99006       36.79452
N         99.04599       65.77895       34.11126
C         98.53235       64.42479       34.14995
C         99.35787       63.59293       33.18686
O        100.48578       63.98280       32.91224
H         99.02034       66.24068       33.20082
H         97.47422       64.49232       33.82470
H         98.56538       63.97547       35.16347
N         98.90329       62.46098       32.57482
C         97.54338       61.93131       32.64924
C         97.28836       61.17858       31.34834
O         97.74990       60.05161       31.24075
C         97.41385       61.00373       33.90319
C         96.16088       60.14451       34.04246
N         95.96108       59.41222       35.16072
O         95.34379       60.07154       33.14487
H         99.55462       62.00820       31.91292
H         96.81770       62.76016       32.70136
H         97.50587       61.64369       34.80507
H         98.26542       60.28814       33.90711
H         96.63902       59.43527       35.93394
H         95.11642       58.82504       35.24886
N         96.66758       61.73628       30.25586
C         96.21837       63.12208       30.10353
C         94.94106       63.53138       30.82206
O         94.47001       64.63213       30.58458
H         96.61635       61.14993       29.40766
H         95.99263       63.26592       29.02364
H         97.03981       63.82505       30.35916
N         94.34247       62.71564       31.72595
C         93.19960       63.12212       32.53407
C         93.69618       63.68241       33.84758
O         94.65542       63.18528       34.41380
C         92.26040       61.94622       32.79984
C         91.65346       61.40391       31.53633
C         90.69713       62.15018       30.82456
C         92.01542       60.12962       31.08088
C         90.08837       61.60723       29.68869
C         91.41524       59.59435       29.94117
C         90.43757       60.32475       29.25014
O         89.82239       59.79639       28.17368
H         94.79040       61.83711       31.94413
H         92.61625       63.91260       32.01401
H         91.42720       62.26345       33.46775
H         92.82728       61.15593       33.33571
H         90.40373       63.13627       31.16554
H         92.76047       59.55148       31.61245
H         89.33353       62.17558       29.15901
H         91.70120       58.60697       29.60387
H         90.00746       58.89310       27.87878
N         93.07961       64.78171       34.34593
C         93.64001       65.58468       35.43105
C         93.19591       65.11727       36.81195
O         93.68529       65.63892       37.80944
C         93.28695       67.06389       35.16572
C         93.78847       67.48562       33.75768
C         91.77556       67.32516       35.39177
C         93.57371       68.96372       33.46572
H         92.27407       65.14303       33.82593
H         94.75060       65.49975       35.38683
H         93.86387       67.66092       35.88342
H         93.30799       66.90577       32.94052
H         94.88199       67.28549       33.71388
H         91.50396       68.37707       35.19016
H         91.12405       66.67926       34.77039
H         91.51635       67.12567       36.45154
H         92.49555       69.19140       33.34323
H         93.99559       69.57929       34.28764
H         94.08077       69.21626       32.51246
N         92.29144       64.11670       36.94886
C         91.95548       63.49749       38.22307
C         91.15513       64.39595       39.15987
O         90.31862       65.15894       38.69501
C         91.15244       62.22202       37.93626
O         91.90819       61.38707       37.09620
H         91.88227       63.71083       36.09225
H         92.89541       63.17722       38.72637
H         90.19834       62.51094       37.43335
H         90.93376       61.68316       38.88079
H         91.27164       60.76314       36.66230
N         91.27655       64.24016       40.51560
C         90.34947       64.85422       41.46909
C         90.82642       66.18175       42.02090
O         92.00782       66.48813       41.97622
C         90.10245       63.91077       42.65509
H         91.93041       63.52201       40.86340
H         89.36791       65.02301       40.97168
H         91.06891       63.63232       43.13077
H         89.46907       64.39884       43.42824
H         89.58991       62.98719       42.31656
N         89.89464       67.02924       42.55498
C         90.16692       68.34051       43.13748
C         91.01424       69.20118       42.23184
O         91.95129       69.85235       42.67949
C         90.69598       68.20924       44.56150
H         88.90393       66.75033       42.49401
H         89.18369       68.85659       43.21777
H         89.96073       67.63021       45.16125
H         91.67317       67.68613       44.57655
H         90.79883       69.21554       45.02141
N         90.72852       69.21707       40.91018
C         91.44772       69.99971       39.92644
C         90.44150       70.83762       39.15209
O         90.65101       72.03077       38.99603
C         92.19584       69.03571       39.01065
C         93.24156       69.73835       38.14188
C         94.51275       69.89977       38.90583
O         95.44181       68.92939       38.74729
O         94.63927       70.77592       39.74618
H         89.98655       68.58383       40.58427
H         92.19638       70.66070       40.41637
H         91.46223       68.49078       38.38510
H         92.72821       68.26538       39.62113
H         92.89697       70.65131       37.61309
H         93.49755       69.01177       37.37101
N         89.27370       70.27186       38.70813
C         88.19472       71.03237       38.11983
H         87.31691       70.97380       38.80134
H         88.45226       72.09975       37.97606
H         87.91256       70.58107       37.14703
H         89.09625       69.26946       38.85098
Ca        97.29539       68.21886       39.81964
O         96.70909       66.37199       37.61134
H         96.12895       65.59924       37.80867
H         97.27886       66.05556       36.87053
O         97.17209       65.05268       40.63209
H         97.86408       64.54644       41.12682
H         96.40529       64.43073       40.56432
O         99.70718       66.35615       39.45955
H        100.44647       65.70070       39.48147
H         99.66826       66.64243       38.51751
O         99.86921       69.09716       40.50568
H         99.72665       70.04520       40.26729
H         99.93787       69.10147       41.49214
O         96.66881       69.74378       41.85054
H         97.05809       69.98202       42.72420
H         95.91588       70.36808       41.72644
O         97.64110       71.20224       39.43479
H         97.06116       70.82791       38.72932
H         98.30565       71.73354       38.93335
O         95.01535       66.97418       40.93492
H         94.73110       67.36271       41.79937
H         94.37442       66.24281       40.75390
O         98.43418       67.12697       42.20749
H         97.74096       67.12420       42.91306
H         99.27275       66.87191       42.66625

Ca 1.70



