%chk=loop4.cluster141.chk
%nprocshared=48
%mem=10GB
%nosave
#b3lyp/svp scf=(tight,noincore) Test 
#IOP(5/87=12) Density=Current Pop=(MK,readradii) iop(6/33=2) iop(6/42=6)

loop4.cluster141 

   -3  1 
C         50.50267       36.75671       30.51600
C         51.43624       37.88534       30.19746
O         52.57252       37.61881       29.85047
H         49.59683       36.82614       29.87848
H         50.99175       35.77544       30.32779
H         50.21167       36.81052       31.58481
N         50.99879       39.17936       30.29659
C         51.77988       40.39230       30.01598
C         52.71033       40.38002       28.77254
O         53.76450       39.46807       28.80476
C         52.41721       41.02549       31.25690
C         53.32675       40.10493       32.00175
O         52.81109       39.08843       32.71667
O         54.52599       40.31388       32.02799
H         50.02257       39.32243       30.59678
H         51.03091       41.17329       29.75267
H         51.62581       41.36841       31.96087
H         52.96184       41.93760       30.91877
N         51.94217       40.29946       27.54127
C         52.58843       40.43009       26.22451
C         53.96698       41.11968       26.14343
O         54.69745       40.83850       25.20609
C         52.50320       39.07106       25.48012
C         51.06404       38.46404       25.44478
C         53.50956       38.04613       26.02912
C         50.45642       38.00210       26.78546
H         51.11647       40.94035       27.58149
H         51.93678       41.11303       25.62953
H         52.78067       39.25701       24.41708
H         51.12336       37.56398       24.79928
H         50.35492       39.17327       24.96331
H         53.39991       37.08037       25.50019
H         54.54952       38.40292       25.88332
H         53.35537       37.84477       27.10146
H         49.56429       37.37524       26.59231
H         51.17343       37.39282       27.36894
H         50.09339       38.84169       27.40925
N         54.30327       42.15668       26.96898
C         55.46227       43.02055       26.72604
C         56.84522       42.34900       26.81397
O         57.25611       41.99398       27.90629
C         55.38396       44.27721       27.63401
C         55.36755       44.17491       29.15349
O         55.23455       45.20839       29.78702
O         55.49468       43.02955       29.85240
H         53.64980       42.42717       27.71479
H         55.32856       43.41531       25.70140
H         54.44480       44.80211       27.35661
H         56.23220       44.94600       27.37336
N         57.68133       42.20390       25.73365
C         57.31605       42.54544       24.36120
C         58.45681       42.38110       23.36380
O         59.56480       42.05059       23.75708
H         58.62161       41.82087       25.91326
H         56.99885       43.60568       24.31973
H         56.49571       41.88164       24.03405
N         58.27762       42.62842       22.03127
C         57.00485       43.04718       21.45431
C         55.96664       41.94381       21.24792
O         54.79487       42.28982       21.28237
C         57.13737       43.96617       20.21428
C         58.09075       43.48580       19.15855
O         59.40678       43.75031       19.28575
O         57.66944       43.02325       18.11191
H         59.10256       42.55593       21.41796
H         56.51538       43.73764       22.17256
H         57.48931       44.97338       20.52714
H         56.12617       44.12561       19.77416
N         56.22930       40.63500       20.96034
C         57.53813       40.01057       20.81734
C         57.40977       38.66916       20.10588
O         56.32608       38.32782       19.64252
H         55.39636       40.04441       20.80800
H         57.98851       39.87134       21.82530
H         58.20849       40.63456       20.19078
N         58.48510       37.85278       19.93959
C         58.36679       36.59487       19.20624
C         57.69726       35.49640       20.01524
O         57.52025       34.40788       19.49030
C         59.70499       36.17849       18.58116
C         60.16557       37.26971       17.59463
C         61.32313       36.80919       16.75741
N         62.48386       37.50152       16.74306
O         61.20237       35.81311       16.05963
H         59.40363       38.14339       20.31379
H         57.69299       36.74845       18.33230
H         59.53010       35.24124       18.00660
H         60.47969       35.98150       19.35322
H         60.41937       38.19856       18.15114
H         59.33569       37.51198       16.89434
H         62.59571       38.35523       17.30866
H         63.26573       37.18616       16.15092
N         57.22960       35.73838       21.27416
C         56.40658       34.78146       21.99848
C         57.11129       34.25103       23.22523
O         56.46553       33.58570       24.02897
C         54.99793       35.37271       22.27428
C         54.25027       35.61720       20.95220
C         55.02459       36.67105       23.09336
H         57.41505       36.63815       21.72997
H         56.22536       33.86518       21.39464
H         54.42317       34.60637       22.84012
H         54.72842       36.43026       20.36824
H         54.24749       34.69795       20.32801
H         53.19598       35.90092       21.15307
H         53.98356       36.97430       23.32292
H         55.58206       36.53024       24.04211
H         55.48737       37.50475       22.52380
N         58.47292       34.30096       23.31729
C         59.20918       33.45144       24.23946
C         60.18022       34.19767       25.12801
O         60.52185       33.66204       26.16888
C         59.98741       32.41063       23.40769
C         59.06975       31.68577       22.44815
N         59.22044       31.83573       21.10982
O         58.16796       30.98463       22.88242
H         59.01125       34.80641       22.59669
H         58.51567       32.88919       24.90497
H         60.49162       31.67227       24.06877
H         60.77411       32.94127       22.82702
H         59.96222       32.44097       20.72753
H         58.57942       31.36332       20.45543
N         60.81876       35.33329       24.71475
C         61.93185       35.86430       25.49142
C         61.45966       36.59758       26.74972
O         60.69198       37.54515       26.65854
C         62.88017       36.70089       24.62061
C         64.19150       36.83534       25.35220
C         65.15206       35.80809       25.26630
C         64.42935       37.93491       26.18343
C         66.33956       35.89227       25.99621
C         65.61655       38.01588       26.91504
C         66.57608       36.99516       26.82245
O         67.72195       37.06451       27.52849
H         60.62464       35.72386       23.78274
H         62.55027       34.98554       25.78241
H         62.44136       37.67925       24.33049
H         63.08091       36.14113       23.67812
H         64.97353       34.93842       24.64327
H         63.68684       38.71656       26.27547
H         67.07152       35.09593       25.92721
H         65.78615       38.86658       27.56055
H         67.91480       37.81520       28.10782
N         61.90358       36.17220       27.96961
C         61.48413       36.69075       29.27400
C         60.03206       36.33300       29.61547
O         59.56099       36.72390       30.67467
C         61.82346       38.19389       29.49366
C         62.10166       38.47110       30.99745
C         62.26691       39.92752       31.32219
O         63.42766       40.38185       31.83096
O         61.32958       40.69462       31.18799
H         62.58197       35.39750       27.98485
H         62.10356       36.13508       30.01205
H         61.00406       38.82759       29.09027
H         62.76170       38.45981       28.95889
H         63.03725       37.93397       31.27755
H         61.29192       38.08413       31.64466
N         59.29967       35.49676       28.81787
C         57.98345       34.99259       29.18952
C         58.17951       33.53145       29.54042
O         57.97344       33.14948       30.68339
C         56.94540       35.18218       28.05126
C         56.94322       36.57053       27.38213
C         56.70357       37.75274       28.27471
O         56.75836       38.87446       27.79766
O         56.43316       37.60123       29.58463
H         59.72735       35.10886       27.97221
H         57.60750       35.51624       30.09409
H         55.93510       34.93427       28.44357
H         57.16233       34.47518       27.22306
H         56.15585       36.57486       26.59744
H         57.92210       36.71342       26.87756
N         58.67896       32.67450       28.60570
C         59.15746       31.35372       28.93869
H         60.05264       31.45405       29.59167
H         58.37692       30.75765       29.44958
H         59.47889       30.83265       28.01044
H         58.79008       32.99218       27.63739
Ca        55.37437       40.86652       29.36899
O         58.25060       39.80847       30.31213
H         58.67009       38.95587       30.04384
H         59.00777       40.36326       30.61485
O         56.92371       41.88074       32.01841
H         57.58208       41.91196       32.75549
H         56.14471       42.38905       32.35820

Ca 1.70



