%chk=loop2.cluster78.chk
%nprocshared=48
%mem=10GB
%nosave
#b3lyp/svp scf=(tight,noincore) Test 
#IOP(5/87=12) Density=Current Pop=(MK,readradii) iop(6/33=2) iop(6/42=6)

loop2.cluster78 

   -2  1 
C        105.27737       69.19717       -1.72831
C        103.78771       69.04026       -1.84456
O        103.34285       67.90335       -1.77730
H        105.66844       70.21206       -1.88260
H        105.59460       68.84736       -0.72290
H        105.75023       68.53996       -2.48852
N        102.90503       70.07523       -1.98923
C        103.19563       71.50947       -1.98485
C        102.57345       72.21599       -3.18055
O        101.70530       71.65325       -3.82863
C        102.70092       72.13099       -0.64158
C        101.32599       71.73375       -0.13934
O        100.54159       71.12612       -0.84158
O        100.98595       72.00516        1.13456
H        101.92188       69.81397       -2.05490
H        104.27606       71.71110       -2.04605
H        102.75519       73.24171       -0.66574
H        103.40396       71.77658        0.13767
N        103.02555       73.46276       -3.53638
C        102.44907       74.33839       -4.56339
C        101.22201       75.06020       -4.02672
O        101.21663       76.28335       -3.99777
C        102.20498       73.65746       -5.91862
H        103.84678       73.83003       -3.03308
H        103.20268       75.13262       -4.77064
H        103.13861       73.17631       -6.27967
H        101.39015       72.90807       -5.88082
H        101.91059       74.42922       -6.66469
N        100.14830       74.35987       -3.57457
C         98.96830       74.96123       -2.97579
C         98.67690       74.29609       -1.65136
O         98.54645       73.08670       -1.60666
C         97.77099       74.88362       -3.93197
C         97.43642       73.61706       -4.70189
O         98.16627       72.47790       -4.69276
O         96.50208       73.67556       -5.48183
H        100.16742       73.34312       -3.63809
H         99.12076       76.04891       -2.78214
H         97.96796       75.64104       -4.72320
H         96.87053       75.22679       -3.37621
N         98.53856       75.02956       -0.51533
C         98.36222       74.39467        0.77634
C         96.92376       74.32487        1.17040
O         96.14898       75.19912        0.80138
H         98.55205       76.05975       -0.56192
H         98.93753       74.94794        1.54496
H         98.77197       73.36250        0.77003
N         96.49272       73.28975        1.94412
C         95.11705       73.17198        2.37851
C         94.99066       73.18872        3.87807
O         95.95694       73.00240        4.60995
C         94.49499       71.86592        1.83927
C         94.32403       71.91097        0.34815
N         93.48701       72.80902       -0.21799
O         94.92428       71.11911       -0.35580
H         97.16518       72.56135        2.23497
H         94.51977       74.03746        2.02068
H         93.48769       71.68884        2.27594
H         95.14534       71.01072        2.13386
H         92.94369       73.46060        0.36642
H         93.37284       72.83804       -1.24120
N         93.74853       73.35949        4.38392
C         93.40549       73.24094        5.78476
C         91.88771       73.13900        5.94202
O         91.16813       73.23141        4.95533
H         93.00078       73.53052        3.69778
H         93.83804       74.08526        6.36742
H         93.84087       72.30228        6.16828
N         91.29519       72.88008        7.13359
C         92.03490       72.58858        8.34803
C         92.37318       71.09457        8.41948
O         93.05761       70.68524        9.34633
C         91.22300       73.09504        9.56663
C         90.87451       74.58570        9.41537
O         90.02152       72.37877        9.70450
H         90.27507       72.72408        7.13498
H         92.99217       73.15237        8.34705
H         91.84009       72.98600       10.48699
H         90.24960       71.49677       10.09636
H         91.78512       75.18958        9.21767
H         90.16202       74.74144        8.57422
H         90.38899       74.96169       10.33972
N         91.93537       70.23365        7.44427
C         92.19659       68.80102        7.37256
C         91.53895       68.09121        8.53989
O         92.09245       68.13105        9.62969
C         93.70646       68.44834        7.20799
C         94.40483       69.26754        6.09146
C         93.88863       66.94124        6.94574
C         93.63716       69.34951        4.76642
H         91.35422       70.60267        6.68172
H         91.71483       68.45657        6.43990
H         94.25221       68.67241        8.15140
H         95.41551       68.84169        5.90987
H         94.56714       70.29847        6.45206
H         93.46340       66.34122        7.77673
H         93.40013       66.63208        5.99901
H         94.97156       66.69700        6.88338
H         93.36801       68.34551        4.38415
H         92.71225       69.95160        4.88535
H         94.26132       69.86727        4.01387
N         90.33025       67.45761        8.44603
C         89.48852       67.40192        7.24634
C         89.94448       66.31233        6.29936
O         90.38214       66.61702        5.19433
C         87.97236       67.29541        7.60532
C         87.47041       66.31453        8.66029
O         88.29124       65.51067        9.36235
O         86.28031       66.30283        8.92583
H         89.95852       67.07566        9.32036
H         89.55772       68.36899        6.69790
H         87.40997       67.10938        6.66228
H         87.66774       68.29384        7.98082
N         89.84086       65.00956        6.66061
C         90.26737       63.89573        5.84328
C         89.04781       63.04445        5.45563
O         88.00956       63.18058        6.10095
C         91.32778       63.07997        6.63424
C         90.76680       62.42301        7.88004
C         90.59105       63.14876        9.07495
C         90.40566       61.06631        7.84434
C         90.04327       62.52840       10.20194
C         89.86114       60.45113        8.97415
C         89.67654       61.18156       10.15057
H         89.41704       64.79286        7.55706
H         90.75414       64.28789        4.93229
H         92.19556       63.72043        6.90577
H         91.75780       62.29266        5.99633
H         90.87541       64.19240        9.13508
H         90.53264       60.49178        6.93536
H         89.90140       63.09252       11.11522
H         89.57762       59.40800        8.93475
H         89.25075       60.70292       11.02271
N         89.07168       62.13824        4.42794
C         90.20039       61.94186        3.53694
C         90.43426       63.14736        2.64104
O         89.73684       64.14630        2.74907
C         89.79650       60.71485        2.70316
C         88.73403       60.03607        3.56117
C         87.98931       61.22992        4.14195
H         91.09285       61.67737        4.12380
H         89.28650       61.04683        1.77331
H         90.65615       60.06113        2.43046
H         88.09954       59.31269        3.00451
H         89.23890       59.51059        4.40149
H         87.35043       61.68668        3.35218
H         87.37697       60.94440        5.02562
N         91.39067       63.07860        1.68136
C         91.69203       64.16726        0.76724
C         93.21294       64.32185        0.55657
O         93.58230       64.78659       -0.51321
C         91.00767       63.80174       -0.58147
C         89.48600       64.05251       -0.60927
C         89.17035       65.52582       -0.67762
O         88.38837       66.10004        0.25520
O         89.59981       66.19991       -1.60214
H         91.89924       62.19098        1.56154
H         91.29308       65.15339        1.09815
H         91.21453       62.72885       -0.78987
H         91.42284       64.38186       -1.43063
H         88.97860       63.57669        0.25611
H         89.07581       63.59411       -1.53369
N         94.18717       63.97811        1.46107
C         94.01393       63.55572        2.83882
H         92.99379       63.63912        3.23229
H         94.39245       62.51820        2.96105
H         94.62088       64.22317        3.48459
H         95.16594       64.05878        1.14411
Ca        98.97425       71.04709       -3.13366
O         97.64836       68.27662       -3.77714
H         97.02116       67.59974       -3.41995
H         98.00861       67.87558       -4.60736
O         96.15397       70.75111       -3.47247
H         95.65552       70.07123       -2.95481
H         95.48031       71.16759       -4.06496
O         98.03390       70.01001       -0.51235
H         98.30642       70.53739        0.27917
H         97.09847       70.27685       -0.66770
O         99.56798       70.16534       -5.80905
H         98.76140       70.43769       -6.31480
H        100.29476       70.15560       -6.47975
O        100.22312       68.27093       -2.65622
H        100.17106       67.43696       -3.18304
H        100.65175       67.99964       -1.80624

Ca 1.70



