%chk=loop2.cluster183.chk
%nprocshared=48
%mem=10GB
%nosave
#b3lyp/svp scf=(tight,noincore) Test 
#IOP(5/87=12) Density=Current Pop=(MK,readradii) iop(6/33=2) iop(6/42=6)

loop2.cluster183 

   -2  1 
C         63.44092       36.45140        8.94539
C         63.02087       36.80627        7.55151
O         62.24891       36.07478        6.96257
H         64.19889       37.16483        9.32974
H         62.55033       36.48326        9.60688
H         63.87606       35.43005        8.96524
N         63.46871       37.94611        6.96307
C         63.05977       38.35277        5.62111
C         63.51531       37.36430        4.54122
O         62.86295       37.28131        3.50877
C         63.59591       39.76630        5.34702
C         63.22731       40.30903        3.99768
O         64.06015       40.33570        3.10596
O         62.02290       40.87909        3.80347
H         64.08214       38.56918        7.50883
H         61.95960       38.41256        5.61022
H         64.70106       39.73871        5.44176
H         63.20453       40.46338        6.12232
N         64.61008       36.56293        4.72646
C         65.08435       35.59427        3.73443
C         64.03512       34.53042        3.36519
O         64.16754       33.87714        2.33984
C         65.73556       36.31565        2.54436
H         65.13812       36.63818        5.60716
H         65.92196       35.02274        4.19092
H         65.03091       36.98846        2.01833
H         66.58682       36.92705        2.92441
H         66.15992       35.58331        1.82400
N         63.02437       34.24284        4.23798
C         62.08167       33.12867        4.13593
C         61.23461       33.08455        2.88021
O         60.94791       31.99946        2.39038
C         62.77924       31.78960        4.46559
C         63.23033       31.80818        5.89478
O         64.40785       31.68422        6.19046
O         62.29773       31.96637        6.85029
H         62.96036       34.79813        5.09432
H         61.32709       33.28993        4.92898
H         63.62145       31.59909        3.76661
H         62.05591       30.94889        4.38557
N         60.72331       34.22313        2.34202
C         59.84875       34.18479        1.18197
C         58.44712       33.66011        1.47261
O         58.10003       33.37510        2.60886
H         61.01122       35.13852        2.72082
H         60.32340       33.56412        0.39117
H         59.73578       35.21466        0.78013
N         57.57627       33.55128        0.43299
C         56.17098       33.16374        0.52022
C         55.34813       34.12987        1.34681
O         54.81096       33.75860        2.38300
C         55.93652       31.67929        0.88803
C         54.49967       31.27734        0.57302
N         53.98523       31.44332       -0.67571
O         53.79701       30.80414        1.45324
H         57.93310       33.78620       -0.50526
H         55.79460       33.26643       -0.51199
H         56.17138       31.48628        1.95997
H         56.60123       31.04376        0.26882
H         54.54773       31.83923       -1.44232
H         53.00850       31.18620       -0.87921
N         55.13452       35.38787        0.87703
C         54.24580       36.32388        1.54119
C         54.79852       36.89822        2.82625
O         54.12417       37.72404        3.42545
H         55.54861       35.65950       -0.02833
H         53.25959       35.84218        1.71159
H         54.08526       37.18932        0.86082
N         56.05299       36.59310        3.26644
C         56.68479       37.34915        4.33856
C         56.06702       37.11377        5.70195
O         55.39679       36.11242        5.91741
C         58.19768       37.01576        4.37390
C         59.04571       37.99829        5.16394
O         58.40527       35.73496        4.91222
H         56.62729       35.92307        2.73694
H         56.57432       38.42138        4.06248
H         58.58181       37.08660        3.32774
H         58.53833       35.11079        4.16321
H         58.85005       39.04338        4.84289
H         58.89600       37.89427        6.25607
H         60.09339       37.74715        4.94332
N         56.34642       37.99557        6.70050
C         56.03348       37.75456        8.10699
C         56.77950       36.51705        8.59035
O         57.71176       36.10712        7.92030
C         56.39989       39.02840        8.94189
C         55.97709       38.87712       10.41854
C         57.90873       39.39638        8.84570
C         55.92446       40.20296       11.17287
H         56.83013       38.86158        6.43537
H         54.93940       37.56654        8.17577
H         55.80384       39.85792        8.49976
H         56.67582       38.18801       10.94062
H         54.94982       38.45711       10.46158
H         58.54305       38.58482        9.26082
H         58.24756       39.58663        7.81002
H         58.13441       40.33249        9.39026
H         56.90384       40.71855       11.18696
H         55.16531       40.86664       10.70623
H         55.62301       40.00549       12.22240
N         56.43476       35.86835        9.74444
C         57.14051       34.67439       10.20728
C         56.19747       33.47777       10.40287
O         56.62783       32.44859       10.89633
C         57.94041       35.01832       11.47315
C         59.06499       34.04577       11.76034
O         59.31166       33.12311       10.99922
O         59.85160       34.23764       12.83338
H         55.65557       36.22801       10.31476
H         57.88744       34.36833        9.44358
H         57.24355       35.09437       12.33063
H         58.43239       36.00500       11.32410
N         54.91269       33.52731        9.95195
C         54.06895       32.34415        9.81871
C         53.74923       31.54200       11.08385
O         53.95492       30.33327       11.03195
C         52.75990       32.72209        9.07809
C         51.79327       31.56354        9.04156
C         52.15061       30.34379        8.44189
C         50.54446       31.68527        9.67081
C         51.27485       29.25625        8.49478
C         49.67253       30.59802        9.71803
C         50.03882       29.38222        9.13607
H         54.55580       34.40313        9.54983
H         54.60283       31.64010        9.14057
H         53.00137       33.05860        8.04615
H         52.27804       33.57685        9.59495
H         53.11305       30.22920        7.95905
H         50.25704       32.61662       10.14310
H         51.55986       28.31234        8.04964
H         48.71837       30.69657       10.21823
H         49.36641       28.53697        9.18614
N         53.13767       32.05172       12.19734
C         52.91956       33.45146       12.48141
C         53.85368       33.94237       13.58659
O         53.73866       35.10725       13.95004
C         51.48928       33.46686       13.07326
C         51.11907       31.98795       13.31903
C         52.40403       31.20471       13.10712
H         53.04652       34.12288       11.61346
H         51.41919       34.06515       14.01102
H         50.75954       33.89594       12.35526
H         50.61116       31.77876       14.28666
H         50.43104       31.69824       12.49983
H         52.92656       31.15367       14.05851
H         52.21525       30.16573       12.75157
N         54.73613       33.11607       14.23112
C         55.37097       33.52282       15.47591
C         56.65359       34.26376       15.17951
O         57.68429       33.63378       14.98488
C         55.57083       32.32172       16.44092
C         54.27261       31.55350       16.77266
C         53.18956       32.43136       17.33546
O         53.38542       33.08676       18.49433
O         52.12556       32.54733       16.74663
H         54.83632       32.13551       13.93800
H         54.68865       34.21562       16.01798
H         56.01086       32.69254       17.39064
H         56.28087       31.59335       15.99007
H         54.49303       30.74375       17.49869
H         53.90742       31.05153       15.86751
N         56.64369       35.62494       15.09246
C         57.81862       36.40958       14.77269
H         58.71513       35.78318       14.59373
H         57.62210       37.00834       13.85732
H         58.03295       37.10181       15.61108
H         55.75914       36.13227       15.24148
Ca        61.04859       32.20704        8.69884
O         61.13281       30.55936       10.95159
H         61.59886       29.71907       11.18559
H         60.94387       30.99729       11.81798
O         59.83262       33.86965        6.84190
H         60.65507       34.40347        6.92969
H         59.12671       34.49409        7.11333
O         58.47985       31.05341        8.96318
H         57.55253       31.38910        9.00412
H         58.48526       30.25571        9.54845
O         61.37252       29.43290        7.98470
H         61.83662       29.11101        8.79716
H         60.74695       28.70491        7.74658
O         62.70313       33.40820       10.46703
H         63.60070       32.99308       10.49514
H         62.31629       33.24533       11.36295

Ca 1.70



