%chk=loop3.cluster15.chk
%nprocshared=48
%mem=10GB
%nosave
#b3lyp/svp scf=(tight,noincore) Test 
#IOP(5/87=12) Density=Current Pop=(MK,readradii) iop(6/33=2) iop(6/42=6)

loop3.cluster15 

   0  1 
C         62.96790       45.21791       35.01658
C         62.70816       44.47891       36.28783
O         63.59561       43.82214       36.81287
H         64.02082       45.10317       34.69189
H         62.29197       44.81489       34.23263
H         62.74033       46.29523       35.16693
N         61.48188       44.56852       36.85321
C         61.11609       43.87202       38.06868
C         60.84860       42.40162       37.74530
O         60.08037       42.10788       36.84219
C         59.94304       44.64100       38.69970
C         59.51670       44.13497       40.01963
O         58.65809       44.84915       40.74773
O         59.95960       43.10149       40.45664
H         60.78197       45.18201       36.40620
H         61.94176       43.95925       38.81504
H         59.06032       44.68229       38.03137
H         60.30889       45.67523       38.88737
N         61.49644       41.43179       38.44908
C         61.49172       40.01188       38.11313
C         60.44821       39.20811       38.84876
O         60.30878       38.02616       38.54567
C         62.92284       39.45784       38.27768
C         63.94846       40.19348       37.38617
C         63.53676       40.16122       35.90830
C         64.55596       40.83444       34.99402
N         64.02109       40.93212       33.63449
H         62.11790       41.72522       39.19315
H         61.16137       39.87649       37.06659
H         62.94544       38.37706       38.03003
H         63.22537       39.56024       39.33916
H         64.94436       39.72132       37.52582
H         64.03062       41.25619       37.69345
H         62.59781       40.73857       35.79562
H         63.36877       39.11263       35.58043
H         65.50568       40.25515       34.99212
H         64.76496       41.85836       35.37139
H         63.92615       39.97946       33.21385
H         63.08410       41.40018       33.64658
H         64.66628       41.50933       33.05040
N         59.59674       39.78330       39.73911
C         58.32366       39.16923       40.08414
C         57.13907       40.15116       40.02476
O         56.03131       39.73608       40.32832
C         58.39239       38.42543       41.42149
C         58.50857       39.25141       42.66722
O         58.32663       38.69767       43.73605
O         58.67077       40.58606       42.65809
H         59.78590       40.73641       40.06088
H         58.09187       38.37051       39.33899
H         59.21297       37.67466       41.40109
H         57.43818       37.85977       41.51242
N         57.28305       41.45474       39.61421
C         56.15991       42.38311       39.55330
C         55.61071       42.82080       40.90388
O         54.53046       43.39277       40.93080
H         58.18173       41.79103       39.25937
H         55.35245       41.90533       38.95948
H         56.46739       43.30746       39.01854
N         56.29047       42.60294       42.06623
C         55.72811       42.93340       43.37938
C         55.63437       44.43236       43.63707
O         55.01279       44.83045       44.61194
C         56.52710       42.23912       44.50487
C         57.87109       42.85056       44.80631
N         58.25562       43.04171       46.08594
O         58.64736       43.11003       43.90235
H         57.20398       42.15518       42.01259
H         54.71326       42.48224       43.40268
H         56.68864       41.18331       44.20592
H         55.93038       42.21837       45.44113
H         57.64117       42.78986       46.87458
H         59.20889       43.36821       46.27736
N         56.29136       45.31378       42.83303
C         56.30174       46.74712       43.04203
C         57.68075       47.28579       43.36936
O         57.79191       48.49256       43.53654
H         56.82824       44.95449       42.04657
H         55.61789       47.04602       43.86033
H         55.94902       47.23184       42.10411
N         58.78963       46.48212       43.44542
C         60.11327       47.05911       43.63471
C         61.23355       46.21837       43.08131
O         61.10337       45.01168       42.92691
C         60.40241       47.50541       45.08592
C         60.55214       46.43489       46.15465
C         59.43171       45.99106       46.87597
C         61.83113       45.97446       46.52960
C         59.58900       45.12451       47.96813
C         61.98200       45.09461       47.61066
C         60.86056       44.67586       48.33912
O         60.99487       43.85251       49.40030
H         58.70960       45.48119       43.24016
H         60.14158       47.96522       42.98728
H         59.63263       48.22857       45.42278
H         61.34997       48.08513       45.07499
H         58.44103       46.33568       46.61073
H         62.71226       46.30474       45.99424
H         58.71937       44.79812       48.52534
H         62.97055       44.74839       47.88917
H         61.86274       43.55540       49.71057
N         62.40030       46.84171       42.77078
C         63.55969       46.15939       42.24409
C         64.53317       46.03706       43.38866
O         65.02031       47.05288       43.87067
C         64.16516       47.00679       41.07714
C         63.18247       47.15088       39.88800
C         65.50694       46.43652       40.57353
C         63.48759       48.40548       39.06045
H         62.48089       47.85549       42.95013
H         63.29684       45.14195       41.87678
H         64.35699       48.02056       41.49674
H         62.13610       47.27168       40.23793
H         63.22081       46.23397       39.25849
H         65.35731       45.41885       40.16541
H         65.94758       47.06019       39.77147
H         66.25373       46.39952       41.39013
H         63.26270       49.30658       39.67423
H         64.54665       48.45995       38.74092
H         62.84399       48.43344       38.15763
N         64.89469       44.80763       43.85366
C         66.05290       44.64790       44.71416
C         67.25536       44.45329       43.82480
O         67.11778       44.37534       42.61217
C         65.90544       43.51078       45.74963
O         65.90421       42.25377       45.14316
H         64.50379       43.97969       43.39200
H         66.21375       45.57983       45.29765
H         65.00491       43.65113       46.39172
H         66.77365       43.52080       46.43991
H         64.99774       42.14182       44.79243
N         68.48714       44.43059       44.36792
C         69.70465       44.38292       43.57663
C         69.83656       43.12733       42.71355
O         70.25618       43.25299       41.57222
C         70.88700       44.55730       44.52251
H         68.56061       44.52776       45.39261
H         69.72349       45.26152       42.88969
H         70.89412       43.75006       45.28403
H         71.84477       44.57699       43.96782
H         70.76725       45.53402       45.04692
N         69.47647       41.88995       43.17352
C         69.60153       40.68415       42.33704
C         68.79072       40.77140       41.04714
O         69.07346       40.04385       40.10302
C         69.14442       39.44636       43.11874
H         69.09935       41.80448       44.12903
H         70.67409       40.56492       42.07022
H         69.25456       38.52598       42.50571
H         69.75162       39.33202       44.04054
H         68.07487       39.55139       43.40893
N         67.72103       41.60246       40.97454
C         66.87004       41.76109       39.80389
C         67.59439       42.65544       38.81474
O         67.80348       42.25760       37.67718
C         65.50330       42.33877       40.27013
C         64.85611       41.36891       41.28714
C         63.60947       41.84220       41.97898
O         62.50881       42.13308       41.30407
O         63.52849       41.76497       43.18477
H         67.47397       42.13128       41.81745
H         66.65480       40.77091       39.33566
H         64.82424       42.49008       39.40527
H         65.66648       43.31321       40.75825
H         65.56785       41.12335       42.09895
H         64.63367       40.41557       40.77513
N         68.06954       43.86768       39.21976
C         68.88791       44.70315       38.36783
H         69.82254       44.16301       38.10133
H         68.33897       44.98333       37.44612
H         69.17239       45.62804       38.91572
H         67.88848       44.18591       40.18098
Ca        60.60567       41.71491       42.42092
O         59.78422       40.77225       45.25364
H         60.02466       39.86513       44.95536
H         59.42764       40.65683       46.16795
O         61.77272       42.57869       45.19588
H         61.86666       42.00171       45.99447
H         61.84918       43.49608       45.54505
O         61.78717       39.41427       42.67319
H         62.38129       39.41056       43.46409
H         61.99105       38.59051       42.17117

Ca 1.70



