%chk=loop2.cluster49.chk
%nprocshared=48
%mem=10GB
%nosave
#b3lyp/svp scf=(tight,noincore) Test 
#IOP(5/87=12) Density=Current Pop=(MK,readradii) iop(6/33=2) iop(6/42=6)

loop2.cluster49 

   -2  1 
C         59.07058       49.22879       18.49702
C         60.12205       48.90032       17.49519
O         60.99456       49.71993       17.24058
H         58.08358       48.86824       18.14457
H         59.33175       48.69177       19.43525
H         59.04159       50.31716       18.70381
N         60.14972       47.65698       16.94978
C         61.28253       47.19037       16.18525
C         61.43462       47.95047       14.86214
O         60.63707       47.76491       13.95329
C         61.17448       45.66505       16.01071
C         62.51084       45.15801       15.68191
O         63.45693       45.22553       16.64319
O         62.76829       44.79906       14.54981
H         59.39785       46.99325       17.19124
H         62.16883       47.39192       16.83015
H         60.39590       45.40383       15.26257
H         60.91732       45.17709       16.97680
N         62.43654       48.86668       14.72826
C         62.56258       49.79803       13.60766
C         63.57982       49.35874       12.55782
O         63.59948       49.93936       11.48092
C         62.98766       51.15791       14.18038
H         63.02217       49.03516       15.54878
H         61.57668       49.91047       13.10552
H         63.95236       51.04815       14.72963
H         63.12136       51.92379       13.39040
H         62.22391       51.50852       14.90627
N         64.44406       48.33482       12.80022
C         65.43114       47.85014       11.82333
C         65.01147       46.51909       11.21229
O         65.46513       46.21461       10.11782
C         66.87261       47.81464       12.42896
C         66.99052       47.05507       13.72191
O         65.95039       46.35064       14.14997
O         67.97481       47.17646       14.43220
H         64.38245       47.88263       13.71476
H         65.47065       48.54988       10.96001
H         67.14798       48.86175       12.66332
H         67.61089       47.40328       11.70685
N         64.15077       45.67464       11.85171
C         63.70277       44.41646       11.27091
C         64.39026       43.19712       11.86413
O         64.08195       42.09757       11.42684
H         63.81862       45.91578       12.78943
H         63.89547       44.39574       10.17747
H         62.59935       44.33811       11.39772
N         65.35644       43.30115       12.82992
C         66.08015       42.13511       13.34501
C         65.33330       41.43856       14.49623
O         65.77579       40.39080       14.94393
C         67.54992       42.51134       13.70402
C         67.71762       43.40264       14.90539
N         68.94380       43.78017       15.33093
O         66.74307       43.77746       15.51181
H         65.61378       44.22696       13.18104
H         66.17705       41.40522       12.51153
H         68.01278       43.02024       12.82992
H         68.11481       41.57971       13.90981
H         69.79050       43.47220       14.83508
H         69.03934       44.37833       16.16759
N         64.17020       41.95899       14.99199
C         63.34127       41.33290       16.01620
C         63.80624       41.54104       17.44914
O         63.12439       41.08109       18.35403
H         63.80234       42.80251       14.56298
H         63.22304       40.25118       15.79180
H         62.33136       41.79304       15.95478
N         64.95855       42.20752       17.73200
C         65.53631       42.32054       19.06717
C         65.77905       43.77530       19.43318
O         66.27854       44.53123       18.61229
C         66.86812       41.55162       19.08956
C         66.63125       40.07625       18.72667
O         67.76816       42.14201       18.18373
H         65.50434       42.57833       16.95941
H         64.87726       41.85638       19.83681
H         67.28051       41.61534       20.12247
H         68.58328       41.57941       18.15788
H         66.27232       39.98619       17.67903
H         67.57674       39.50561       18.81861
H         65.87440       39.62583       19.40363
N         65.45436       44.23259       20.67185
C         65.58461       45.63919       21.04403
C         67.04818       46.04726       21.14237
O         67.80529       45.42819       21.87973
C         64.84810       45.95367       22.37688
C         63.36152       45.51117       22.28753
C         64.91483       47.47237       22.68107
C         62.64750       45.56815       23.63170
H         65.07817       43.55988       21.35545
H         65.06066       46.24587       20.27859
H         65.35494       45.38864       23.19071
H         63.27821       44.45716       21.96583
H         62.82147       46.12361       21.53139
H         65.95899       47.83932       22.72500
H         64.37882       48.04769       21.89332
H         64.46011       47.71468       23.66073
H         62.56703       46.60489       24.00968
H         61.62304       45.15831       23.51453
H         63.19790       44.94218       24.36692
N         67.47830       47.15526       20.48150
C         68.80884       47.74347       20.63173
C         68.68065       49.09581       21.29837
O         67.57297       49.55029       21.47760
C         69.53462       47.83639       19.27073
C         68.66424       48.32284       18.13414
O         68.92772       49.48776       17.51670
O         67.75501       47.62063       17.72113
H         66.78766       47.66837       19.91577
H         69.43321       47.14021       21.32755
H         69.89443       46.82640       18.98728
H         70.42579       48.49024       19.38371
N         69.76276       49.77153       21.77124
C         69.64319       50.96667       22.60899
C         68.90892       52.14598       21.94572
O         68.10421       52.75613       22.63010
C         71.02013       51.37546       23.16723
C         70.94720       52.35225       24.32159
C         71.49069       53.63933       24.19376
C         70.37433       51.96671       25.55154
C         71.46182       54.52784       25.27368
C         70.35525       52.85750       26.63093
C         70.89855       54.13675       26.49149
H         70.69953       49.36329       21.61793
H         69.03468       50.66985       23.49485
H         71.63923       51.77373       22.33820
H         71.53325       50.47142       23.56417
H         71.93814       53.95149       23.25955
H         69.96176       50.97346       25.68083
H         71.88364       55.51832       25.16788
H         69.92630       52.55409       27.57847
H         70.88727       54.82395       27.32821
N         69.08959       52.51131       20.62723
C         68.29487       53.56113       19.99262
C         66.80652       53.30681       20.19087
O         66.08669       54.19033       20.63948
C         68.64253       53.42235       18.49498
C         70.02035       52.78658       18.50223
C         69.97372       51.84490       19.70502
H         68.61618       54.55061       20.38824
H         67.97787       52.67301       18.01552
H         68.55867       54.36584       17.91036
H         70.30463       52.29331       17.54501
H         70.75254       53.58927       18.72762
H         69.51382       50.87773       19.44081
H         71.00434       51.70131       20.08959
N         66.29939       52.07222       19.90983
C         64.90438       51.68322       20.10053
C         64.49367       51.86334       21.56325
O         63.55820       52.60280       21.82765
C         64.71253       50.23104       19.59328
C         64.88940       50.15970       18.05894
C         64.88223       48.75987       17.52817
O         65.12635       48.56842       16.34932
O         64.65159       47.71093       18.33786
H         66.96034       51.35876       19.56070
H         64.24593       52.33223       19.48247
H         63.70282       49.84718       19.84679
H         65.46262       49.57581       20.08225
H         65.86075       50.60258       17.75790
H         64.07801       50.73632       17.56119
N         65.16867       51.24046       22.56634
C         64.91397       51.47898       23.96808
H         63.84419       51.32404       24.20875
H         65.52364       50.77351       24.57718
H         65.23385       52.50983       24.23049
H         65.91132       50.59906       22.33999
Ca        65.51543       45.85286       16.22425

Ca 1.70



