%chk=loop2.cluster114.chk
%nprocshared=48
%mem=10GB
%nosave
#b3lyp/svp scf=(tight,noincore) Test 
#IOP(5/87=12) Density=Current Pop=(MK,readradii) iop(6/33=2) iop(6/42=6)

loop2.cluster114 

   -2  1 
C         19.75787       -0.80651       52.26080
C         19.82106        0.24826       53.32699
O         19.93737        1.42170       53.00504
H         19.91423       -0.35661       51.25705
H         20.54011       -1.57422       52.43482
H         18.75901       -1.29252       52.27831
N         19.75537       -0.10554       54.64159
C         19.77808        0.88652       55.71864
C         18.44973        1.64801       55.83187
O         18.35618        2.53879       56.66621
C         20.08034        0.19296       57.06844
C         21.41666       -0.51131       57.11294
O         21.74965       -1.22906       58.20228
O         22.20271       -0.43556       56.18053
H         19.72030       -1.10943       54.88061
H         20.60341        1.60893       55.52484
H         19.28041       -0.54988       57.27231
H         20.08078        0.94366       57.88916
N         17.38295        1.35327       55.02848
C         16.07808        2.00535       55.11536
C         14.99291        0.93236       55.15049
O         14.96861        0.10685       54.24645
C         15.87272        2.91229       53.90132
H         17.48285        0.62348       54.30977
H         16.01645        2.67402       55.99068
H         14.79145        3.09485       53.72305
H         16.34800        3.89685       54.10216
H         16.31958        2.47428       52.98566
N         14.05497        0.84288       56.14433
C         13.94529        1.78650       57.25856
C         13.22601        1.12848       58.45153
O         12.74273        0.01123       58.33467
C         13.24410        3.10420       56.75110
C         13.49514        4.35230       57.58289
O         14.37700        4.34814       58.42260
O         12.84804        5.52088       57.35842
H         13.39904        0.05143       56.10002
H         14.96496        1.97530       57.64122
H         12.16582        2.89101       56.63892
H         13.60940        3.37286       55.73926
N         13.14997        1.77181       59.64883
C         12.47948        1.24241       60.82528
C         13.29826        0.20805       61.56145
O         14.48786        0.43048       61.72770
H         13.56912        2.69728       59.74386
H         11.44741        0.93835       60.60825
H         12.40399        2.08756       61.54018
N         12.74239       -0.88429       62.17078
C         11.32189       -1.21930       62.13337
C         10.96142       -1.71530       60.74415
O         11.79337       -2.31824       60.07918
C         10.98749       -2.19927       63.27916
C          9.51169       -2.26871       63.60402
N          9.03925       -1.70144       64.74463
O          8.74146       -2.83170       62.84175
H         13.36138       -1.46755       62.75442
H         10.74250       -0.29824       62.37896
H         11.48317       -1.78254       64.18284
H         11.41709       -3.20901       63.10878
H          9.67225       -1.19737       65.38505
H          8.03652       -1.74286       64.97897
N          9.76276       -1.38283       60.20793
C          9.45190       -1.47712       58.79183
C          8.80015       -0.16311       58.46139
O          7.60674       -0.12927       58.20169
H          9.06617       -0.92713       60.81737
H          8.73243       -2.30392       58.62211
H         10.35446       -1.65738       58.15778
N          9.52705        0.98176       58.56278
C          8.96315        2.32092       58.52991
C          9.22918        2.83183       57.14176
O          9.97073        3.78311       56.95564
C          9.61640        3.14952       59.68091
C          9.00268        4.53976       59.86162
O          9.47023        2.44831       60.89061
H         10.53977        0.90023       58.67463
H          7.86323        2.29100       58.69012
H         10.70382        3.25571       59.44805
H         10.05489        2.89424       61.56005
H          9.56005        5.07751       60.66145
H          9.05730        5.14123       58.93461
H          7.94539        4.44531       60.18511
N          8.67496        2.16073       56.09508
C          9.06131        2.36349       54.71261
C          7.97801        3.08891       53.96034
O          6.83409        2.65623       53.95354
C          9.50184        1.03366       54.03561
C         10.85226        0.56418       54.63346
C          8.43230       -0.07639       54.11465
C         11.46607       -0.60786       53.86616
H          7.97340        1.43837       56.29750
H          9.94160        3.01185       54.67191
H          9.68198        1.26958       52.96343
H         10.73814        0.29703       55.70704
H         11.57925        1.40307       54.56779
H          8.73725       -0.96175       53.52422
H          8.27715       -0.41324       55.16105
H          7.46678        0.26605       53.69598
H         12.46959       -0.84446       54.26520
H         10.85028       -1.52247       53.96120
H         11.57906       -0.34205       52.79608
N          8.29141        4.24977       53.31824
C          7.31907        5.09533       52.66642
C          7.67057        5.25248       51.20451
O          8.73820        5.75927       50.89267
C          7.34706        6.47627       53.34235
C          7.12989        6.36516       54.82339
O          6.00066        6.27433       55.27381
O          8.18742        6.19943       55.63973
H          9.26212        4.58518       53.33047
H          6.29574        4.67448       52.76927
H          6.59600        7.16022       52.89312
H          8.34705        6.93135       53.18020
N          6.77457        4.88723       50.25202
C          6.93583        5.20734       48.83681
C          8.17871        4.52925       48.21236
O          8.21231        3.31460       48.14696
C          5.60562        4.86503       48.13751
C          5.52037        5.19339       46.67572
C          5.08314        4.20969       45.77584
C          5.81627        6.48272       46.20172
C          4.94314        4.50966       44.42108
C          5.69482        6.77271       44.84071
C          5.25380        5.78828       43.95181
H          5.88997        4.45710       50.56539
H          7.02618        6.30515       48.78397
H          4.81396        5.46197       48.64488
H          5.36772        3.79143       48.30657
H          4.82726        3.21818       46.12973
H          6.13726        7.26104       46.88040
H          4.58728        3.75066       43.73768
H          5.93258        7.76369       44.47719
H          5.14542        6.01770       42.90093
N          9.25325        5.28220       47.77373
C         10.51260        4.73051       47.25918
C         11.13348        3.63178       48.10688
O         11.62247        2.64420       47.56678
C         11.45967        5.94887       47.34998
C         10.56406        7.15386       47.16699
C          9.25750        6.72831       47.81659
H         10.37045        4.41080       46.20381
H         11.84310        6.03970       48.38982
H         12.33962        5.91360       46.67042
H         10.97365        8.09456       47.60231
H         10.39591        7.28929       46.07982
H          9.20591        7.06423       48.86934
H          8.42407        7.16404       47.22493
N         11.19082        3.77746       49.45628
C         11.88379        2.87561       50.37116
C         11.40156        1.44332       50.26410
O         12.20753        0.53823       50.41728
C         11.70432        3.37625       51.81367
C         12.40110        4.74174       52.01372
C         12.18976        5.31321       53.37247
O         12.64778        6.40895       53.65259
O         11.51265        4.62170       54.29346
H         10.71275        4.60097       49.85051
H         12.97547        2.87793       50.14807
H         12.13233        2.64934       52.53740
H         10.61340        3.44938       52.00590
H         12.02532        5.49096       51.29104
H         13.49296        4.61634       51.86691
N         10.10652        1.16324       49.95945
C          9.64218       -0.19947       49.82003
H          8.59533       -0.20051       49.45106
H         10.27375       -0.74575       49.08621
H          9.68220       -0.71383       50.80293
H          9.44293        1.92923       49.79723
Ca        11.05345        6.28337       56.18731
O         11.09916        7.04743       58.82395
H         10.55783        7.07841       59.64884
H         11.98031        7.41984       59.07590
O          9.22263        8.60023       57.07447
H          8.29015        8.28786       57.18533
H          9.47073        8.95044       57.96600
O         12.66427        8.62554       56.19684
H         13.42822        8.65937       56.82521
H         12.32851        9.55539       56.15298
O         10.18385        8.48277       54.01240
H          9.89819        9.42995       54.04140
H         10.53891        8.35632       53.09668

Ca 1.70



