%chk=loop1.cluster152.chk
%nprocshared=48
%mem=10GB
%nosave
#b3lyp/svp scf=(tight,noincore) Test 
#IOP(5/87=12) Density=Current Pop=(MK,readradii) iop(6/33=2) iop(6/42=6)

loop1.cluster152 

   0  1 
C         77.72143       63.25004       33.79845
C         78.40113       63.58998       32.51370
O         78.23743       62.87005       31.53943
H         76.64888       63.02771       33.61911
H         78.22939       62.36655       34.23151
H         77.78972       64.09520       34.51613
N         79.19489       64.69285       32.44321
C         79.88572       65.10181       31.23516
C         78.85321       65.30547       30.13375
O         78.86841       64.65085       29.09937
C         81.03470       64.13203       30.90865
C         81.97638       64.74335       29.92983
O         82.92562       64.10446       29.50841
O         81.82572       66.02963       29.58355
H         79.30906       65.28263       33.28112
H         80.35098       66.08908       31.46838
H         80.64186       63.16907       30.52848
H         81.63491       63.94679       31.82678
N         77.88137       66.21051       30.37784
C         76.67982       66.48000       29.59220
C         76.92811       66.75088       28.11277
O         76.18721       66.23682       27.28818
C         76.04698       67.71468       30.25996
C         74.62688       68.08673       29.85954
C         74.12929       69.24135       30.76669
C         74.88493       70.57671       30.60381
N         74.71142       71.10363       29.25744
H         77.98738       66.72593       31.26710
H         75.97823       65.61752       29.68867
H         76.74015       68.56593       30.09224
H         75.98895       67.51075       31.35255
H         73.97432       67.20624       30.04102
H         74.56083       68.33378       28.78002
H         74.21903       68.92547       31.83005
H         73.05547       69.42250       30.56181
H         75.96929       70.47139       30.83226
H         74.48090       71.31214       31.33098
H         73.69783       71.18642       29.02028
H         75.17750       72.03498       29.16956
H         75.14748       70.43919       28.59779
N         77.95036       67.56287       27.71623
C         78.16736       67.95592       26.31921
C         79.44087       67.35029       25.74092
O         79.77431       67.66291       24.60390
C         78.29131       69.48638       26.24490
C         77.16375       70.19633       26.90286
O         77.41092       70.98573       27.96781
O         76.02831       70.07760       26.47148
H         78.59947       67.92292       28.42802
H         77.31171       67.63591       25.68014
H         78.33922       69.82012       25.18703
H         79.22337       69.78906       26.76271
N         80.18793       66.45167       26.44156
C         81.37998       65.81099       25.91190
C         82.60424       66.71186       25.87268
O         83.18783       66.87926       24.81488
H         79.85725       66.13820       27.36304
H         81.15601       65.37874       24.91157
H         81.64358       64.96923       26.58459
N         83.06061       67.29767       27.02033
C         84.25818       68.14095       27.10088
C         85.20034       67.77218       28.24399
O         86.18335       68.48096       28.43002
C         83.78767       69.58680       27.35163
C         82.90558       69.98296       26.22212
O         81.72329       70.20882       26.41523
O         83.37327       69.90215       24.96940
H         82.48727       67.21895       27.85466
H         84.83599       68.09918       26.15256
H         84.64772       70.28659       27.41363
H         83.22068       69.63353       28.31094
N         84.96001       66.72983       29.08548
C         85.64353       66.60463       30.36222
C         86.64287       65.49309       30.44317
O         86.86981       64.77509       29.47711
H         84.18371       66.09062       28.89449
H         84.87293       66.42725       31.14511
H         86.16715       67.54417       30.63669
N         87.26962       65.29035       31.63283
C         88.16847       64.17628       31.87863
C         89.45130       64.24817       31.06919
O         89.77175       65.26989       30.48357
C         88.48117       64.05313       33.39912
C         89.30946       65.24841       33.93752
O         87.25830       63.90058       34.08603
H         87.01674       65.90795       32.41943
H         87.62997       63.25240       31.57295
H         89.07953       63.13651       33.58356
H         87.28774       64.39496       34.94503
H         89.51508       65.10930       35.02012
H         90.28932       65.31951       33.42202
H         88.77220       66.20995       33.81126
N         90.24594       63.14620       31.05481
C         91.60079       63.13100       30.50375
C         92.02874       61.72251       30.02643
O         93.07673       61.61521       29.39803
C         92.54041       63.72096       31.60327
C         94.01983       63.90085       31.20325
C         92.46296       62.88133       32.88977
C         94.21305       64.93100       30.09489
H         89.93691       62.37365       31.64444
H         91.61208       63.78024       29.60047
H         92.16140       64.73509       31.86371
H         94.48549       62.93374       30.92442
H         94.56844       64.28722       32.09046
H         92.79977       61.84018       32.70942
H         93.08754       63.33913       33.68312
H         91.42755       62.85562       33.28058
H         93.75922       65.90042       30.39571
H         95.29998       65.09169       29.93420
H         93.75898       64.58883       29.14411
N         91.26144       60.60959       30.24721
C         91.58457       59.26748       29.79442
C         91.53309       58.30485       30.96617
O         90.64113       58.39117       31.80448
C         90.55778       58.83923       28.73104
C         90.78536       59.61412       27.42905
O         90.69059       57.46681       28.46411
H         90.36849       60.68358       30.73873
H         92.59605       59.20946       29.32732
H         89.53962       59.04249       29.14015
H         89.86253       57.18853       27.99298
H         90.75547       60.71047       27.59457
H         91.77738       59.34269       27.00308
H         90.00221       59.34148       26.69320
N         92.44913       57.30798       31.03812
C         92.49224       56.30997       32.10240
C         92.73639       56.88994       33.49347
O         92.59145       56.15323       34.45961
C         93.56101       55.22785       31.76792
C         94.96651       55.82695       31.54029
O         93.19150       54.53171       30.60464
H         93.10566       57.22980       30.25169
H         91.49240       55.81747       32.15020
H         93.63542       54.50110       32.60915
H         92.28605       54.15382       30.76122
H         95.00888       56.50615       30.66458
H         95.31443       56.39580       32.42584
H         95.68874       55.01644       31.31745
N         93.06057       58.20180       33.67971
C         93.20869       58.79401       35.00581
C         91.94977       59.55042       35.39561
O         91.09004       59.80631       34.56238
C         94.43780       59.73714       35.00496
C         95.76856       58.97273       35.08749
C         96.92881       59.81477       34.52407
C         98.29602       59.14150       34.73382
N         98.84157       59.43155       36.06290
H         93.16462       58.81901       32.86364
H         93.32036       58.00820       35.78479
H         94.42451       60.45147       35.85700
H         94.38348       60.34756       34.07534
H         95.72520       58.04362       34.47848
H         95.92843       58.67955       36.14886
H         96.95636       60.84582       34.93911
H         96.73860       59.88957       33.43077
H         99.01558       59.53407       33.98172
H         98.20833       58.04435       34.56668
H         98.12390       59.31407       36.81227
H         99.64989       58.79682       36.25369
H         99.19216       60.41871       36.07731
N         91.79853       59.93092       36.69710
C         90.67649       60.70767       37.22269
C         90.16901       60.05323       38.51563
O         91.00237       59.77126       39.36668
C         91.20620       62.10170       37.58585
C         91.70717       62.86221       36.35392
C         92.31855       64.16303       36.76938
O         91.60966       65.09545       37.11120
O         93.65860       64.28200       36.83183
H         92.55912       59.69277       37.35239
H         89.89265       60.83826       36.45477
H         92.05497       61.98044       38.29857
H         90.40641       62.69251       38.08040
H         90.88294       63.03922       35.62867
H         92.48943       62.25967       35.84860
N         88.85614       59.78060       38.79326
C         87.71224       60.12679       37.97374
H         86.98475       60.69098       38.59792
H         87.94184       60.76418       37.10738
H         87.21862       59.19491       37.63028
H         88.64715       59.30649       39.68657
Ca        81.85167       69.33195       23.45363
O         82.23339       71.35119       21.63194
H         83.12603       71.21771       21.22708
H         82.32293       72.16964       22.18095
O         80.08989       68.95619       21.27743
H         80.44778       69.38777       20.46199
H         79.15064       69.26069       21.33823
O         79.93163       71.23437       23.57715
H         79.32409       71.59023       22.88308
H         79.88096       71.87625       24.32771
O         81.31111       66.56104       22.37184
H         80.45353       66.06741       22.36246
H         81.71213       66.38353       21.48504
O         83.55597       68.41621       21.57462
H         84.04787       67.55961       21.61945
H         83.66981       68.73895       20.64714

Ca 1.70



