%chk=loop2.cluster64.chk
%nprocshared=48
%mem=10GB
%nosave
#b3lyp/svp scf=(tight,noincore) Test 
#IOP(5/87=12) Density=Current Pop=(MK,readradii) iop(6/33=2) iop(6/42=6)

loop2.cluster64 

   -2  1 
C         56.17859       35.13034       25.19005
C         55.88473       35.04610       23.71608
O         54.89682       34.44184       23.32385
H         57.05641       35.78754       25.38422
H         55.31006       35.59299       25.70509
H         56.38619       34.13202       25.62077
N         56.68800       35.70653       22.84517
C         56.38981       35.89093       21.43008
C         56.51470       34.60464       20.60790
O         55.62823       34.31632       19.81713
C         57.35537       36.97999       20.90110
C         57.02418       37.55201       19.55120
O         57.80582       38.52319       19.04194
O         56.03722       37.18614       18.93336
H         57.50679       36.19980       23.23603
H         55.36191       36.31416       21.34051
H         58.39288       36.58330       20.89724
H         57.31970       37.84358       21.60374
N         57.62866       33.81561       20.72180
C         57.94531       32.68260       19.84184
C         56.94117       31.53945       19.83362
O         57.03199       30.69274       18.95063
C         58.23499       33.18559       18.41964
H         58.32779       34.06448       21.43419
H         58.90168       32.23423       20.18530
H         57.33855       33.62607       17.93866
H         59.04275       33.94705       18.45899
H         58.60394       32.34822       17.78572
N         55.97500       31.41615       20.78792
C         54.98829       30.34403       20.77184
C         54.20578       30.41096       19.47945
O         54.18577       29.44954       18.72578
C         55.62950       28.96117       21.04021
C         56.25763       28.95988       22.39942
O         57.36524       29.44194       22.57918
O         55.49433       28.59561       23.44254
H         55.91672       32.10960       21.54743
H         54.26265       30.51705       21.59877
H         56.35553       28.62487       20.26981
H         54.80992       28.20503       21.05429
N         53.58448       31.57989       19.14575
C         52.84223       31.77568       17.91254
C         51.41829       31.25969       18.00444
O         50.49234       32.04173       17.83918
H         53.72346       32.39657       19.75746
H         53.39270       31.33182       17.05551
H         52.78473       32.87121       17.72185
N         51.16570       29.94222       18.23365
C         49.82404       29.37575       18.27963
C         49.02916       29.93811       19.43545
O         49.44631       29.78343       20.57768
C         49.92972       27.84793       18.42101
C         48.58252       27.22245       18.66128
N         48.32082       26.61783       19.84378
O         47.71298       27.29707       17.80641
H         51.95486       29.30361       18.35514
H         49.30127       29.60046       17.32605
H         50.59676       27.61522       19.28069
H         50.39771       27.42282       17.50635
H         49.03948       26.57922       20.58281
H         47.39264       26.21482       20.03100
N         47.83160       30.55953       19.20284
C         47.02895       31.12375       20.26971
C         47.45763       32.53902       20.56968
O         46.62014       33.43144       20.59761
H         47.45512       30.58866       18.24502
H         47.13162       30.48399       21.15708
H         45.95291       31.11605       19.98512
N         48.76902       32.81720       20.79604
C         49.27878       34.13390       21.12707
C         49.18711       34.33398       22.61287
O         49.02481       33.37111       23.32438
C         50.74793       34.24195       20.59660
C         51.50661       35.51709       20.97471
O         51.52573       33.12293       20.96013
H         49.44069       32.05055       20.77371
H         48.65197       34.91206       20.63640
H         50.65779       34.22927       19.49019
H         51.67873       33.14860       21.94046
H         51.79007       35.49805       22.04943
H         52.44501       35.56564       20.38224
H         50.90117       36.41910       20.76525
N         49.29445       35.56689       23.15557
C         49.36985       35.82922       24.59672
C         50.49207       34.99318       25.24223
O         51.56678       34.89083       24.66894
C         49.43262       37.36797       24.85510
C         49.60054       37.68427       26.35882
C         50.49598       38.11689       24.01578
C         49.01569       39.05266       26.72147
H         49.33674       36.34725       22.49348
H         48.42068       35.49150       25.07074
H         48.43318       37.74637       24.53726
H         50.67469       37.61765       26.64628
H         49.03612       36.94861       26.96667
H         51.49885       37.66952       24.16330
H         50.26814       38.11266       22.93179
H         50.52565       39.19148       24.27506
H         49.52091       39.88460       26.19209
H         47.93366       39.06800       26.46106
H         49.10307       39.21770       27.81500
N         50.24461       34.27805       26.39133
C         51.09070       33.18296       26.88199
C         50.19567       31.92780       26.98648
O         50.19389       31.21261       27.97984
C         51.77012       33.59062       28.20195
C         52.71960       32.55424       28.73593
O         53.69485       32.22065       28.08452
O         52.51876       32.01969       29.95547
H         49.36779       34.44443       26.89642
H         51.88893       32.97741       26.13212
H         50.99290       33.80493       28.96032
H         52.35419       34.51977       28.02648
N         49.39432       31.64336       25.93080
C         48.49321       30.51111       25.73356
C         47.06750       30.62481       26.31147
O         46.58967       29.60359       26.76989
C         48.33792       30.32402       24.19598
C         47.19949       29.45870       23.70975
C         47.33126       28.07165       23.58085
C         45.99411       30.07707       23.32081
C         46.27345       27.31980       23.05033
C         44.94500       29.32796       22.80168
C         45.08443       27.94910       22.65903
H         49.51993       32.26666       25.14184
H         48.96097       29.57058       26.10362
H         49.30105       30.02566       23.72485
H         48.10873       31.30940       23.76714
H         48.25362       27.58177       23.86372
H         45.87913       31.14861       23.40233
H         46.37772       26.25107       22.93028
H         44.03133       29.82371       22.49732
H         44.27248       27.37127       22.23958
N         46.24231       31.71991       26.12392
C         46.65190       33.08166       25.88512
C         46.82711       33.79512       27.24187
O         47.00937       34.99822       27.27431
C         45.41590       33.65127       25.17761
C         44.26966       33.00596       25.95612
C         44.79333       31.59129       26.23307
H         47.52383       33.20326       25.22998
H         45.36908       34.76084       25.11621
H         45.39853       33.25184       24.14156
H         44.18619       33.54491       26.92407
H         43.27993       33.03761       25.44966
H         44.45146       31.21914       27.22261
H         44.44882       30.90249       25.43638
N         46.66356       33.08647       28.40379
C         46.57074       33.69339       29.71891
C         47.91676       34.16831       30.20569
O         48.83530       33.37033       30.32671
C         45.92149       32.64794       30.64849
C         45.68637       33.13146       32.07180
C         44.77476       32.16062       32.76590
O         45.17252       30.89303       32.98817
O         43.64820       32.50584       33.08468
H         46.47711       32.08283       28.35853
H         45.85693       34.54500       29.66800
H         46.50655       31.70052       30.66424
H         44.92576       32.42786       30.19407
H         45.19706       34.12706       32.03386
H         46.64999       33.22296       32.61924
N         48.09805       35.48457       30.50551
C         49.36984       36.00464       30.95260
H         50.15020       35.79433       30.19251
H         49.29406       37.10559       31.08190
H         49.65494       35.54942       31.92482
H         47.31020       36.14108       30.40185
Ca        54.63920       28.12401       25.46992
O         56.61421       26.48167       26.15048
H         56.62493       25.70993       26.76782
H         57.41568       26.38084       25.58049
O         52.92620       26.02357       26.55347
H         52.67757       25.73967       27.46836
H         52.79756       25.21685       25.99531
O         54.09312       30.82497       25.02761
H         54.08291       30.96574       26.00522
H         54.10488       31.73536       24.64497
O         52.51061       28.98491       27.20405
H         51.67524       28.67306       27.63113
H         52.71943       29.83697       27.65900
O         56.15530       29.65811       27.15863
H         55.72598       30.01984       27.97373
H         57.12000       29.61384       27.36992
O         54.36678       25.64397       23.68534
H         53.98022       25.13853       22.92928
H         54.94198       26.31305       23.24457
O         52.39762       28.17328       23.76404
H         51.74303       27.54693       23.36693
H         52.07936       29.07515       23.50949
O         54.85182       27.12675       28.67907
H         54.03666       27.65926       28.85488
H         55.59765       27.75298       28.85179

Ca 1.70



