%chk=loop4.cluster127.chk
%nprocshared=48
%mem=10GB
%nosave
#b3lyp/svp scf=(tight,noincore) Test 
#IOP(5/87=12) Density=Current Pop=(MK,readradii) iop(6/33=2) iop(6/42=6)

loop4.cluster127 

   -3  1 
C         56.88073       27.75803       41.54334
C         57.73075       27.11532       42.60930
O         58.28445       27.82963       43.43180
H         56.04164       28.30323       42.02798
H         57.47425       28.48049       40.94372
H         56.44617       27.00278       40.85540
N         57.84062       25.75094       42.67957
C         58.57893       25.02928       43.72959
C         57.99583       25.20586       45.11715
O         58.58917       24.72269       46.07268
C         60.08351       25.37153       43.72309
C         60.64665       24.95514       42.41905
O         60.56479       25.82094       41.38709
O         60.86816       23.77244       42.22876
H         57.35865       25.18655       41.96415
H         58.49362       23.93862       43.52282
H         60.60981       24.80033       44.52004
H         60.28348       26.44726       43.89776
N         56.81422       25.84691       45.30839
C         56.23671       26.05461       46.62923
C         55.93381       24.70807       47.27223
O         55.28409       23.89118       46.63399
C         54.98351       26.95498       46.48496
C         55.48813       28.37052       46.08606
C         54.14224       27.01739       47.77514
C         54.40134       29.29722       45.57453
H         56.29641       26.19552       44.49024
H         56.98121       26.61408       47.21894
H         54.33933       26.51699       45.68822
H         56.23518       28.30932       45.26726
H         56.00673       28.82914       46.95836
H         53.81137       26.00208       48.08156
H         54.72040       27.46761       48.60779
H         53.22031       27.60982       47.61167
H         53.61125       29.45545       46.33182
H         54.86370       30.27723       45.32928
H         53.96484       28.86922       44.64732
N         56.38382       24.36733       48.51948
C         56.99343       25.29927       49.47263
C         58.50850       25.22536       49.51830
O         59.14283       26.26325       49.37693
C         56.34337       25.19942       50.87399
C         56.35223       23.87427       51.59942
O         55.79579       23.79885       52.82172
O         56.82013       22.86758       51.09898
H         56.18960       23.40922       48.84160
H         56.74974       26.34687       49.21278
H         55.27861       25.49982       50.77408
H         56.84519       25.94738       51.52863
N         59.17053       24.05230       49.71773
C         60.60807       24.01289       49.90347
C         60.97168       24.55190       51.26601
O         60.59282       23.95111       52.26228
H         58.65620       23.16543       49.72365
H         61.10893       24.56842       49.08041
H         60.96477       22.96220       49.86880
N         61.70290       25.69334       51.38263
C         62.13688       26.23347       52.66645
C         61.39400       27.51469       53.04351
O         61.65931       28.04084       54.11593
C         63.68170       26.41409       52.66148
C         64.25523       27.13767       51.45888
O         63.78508       28.33178       51.07336
O         65.16143       26.62769       50.82074
H         61.94979       26.21050       50.52586
H         61.90121       25.53070       53.49736
H         64.15335       25.40663       52.67788
H         63.99105       26.93190       53.59429
N         60.43018       28.06424       52.23887
C         59.69715       29.28202       52.58757
C         60.55380       30.54008       52.67089
O         60.01935       31.59769       52.97006
H         60.17576       27.59523       51.36079
H         59.18056       29.13272       53.55952
H         58.92120       29.46011       51.81087
N         61.89156       30.49579       52.41164
C         62.83301       31.60439       52.52151
C         62.68835       32.66132       51.43628
O         63.55296       33.52185       51.33163
C         62.88330       32.16212       53.95231
C         63.06316       31.01024       54.96197
C         63.44020       31.46809       56.34167
N         64.03373       30.59935       57.19248
O         63.25284       32.62562       56.68610
H         62.29956       29.60539       52.15828
H         63.83940       31.16083       52.32732
H         61.97377       32.74725       54.19959
H         63.76717       32.83561       54.00757
H         63.88450       30.35670       54.59757
H         62.14280       30.38925       55.02916
H         64.23200       29.63116       56.89633
H         64.33177       30.90628       58.12912
N         61.67776       32.59350       50.52496
C         61.62239       33.38888       49.30297
C         62.87113       33.05416       48.51065
O         63.14804       31.87943       48.29438
C         60.29572       33.04054       48.57454
C         59.11297       33.64056       49.36580
C         60.24593       33.52357       47.12476
H         60.96214       31.87068       50.64060
H         61.61702       34.47907       49.53492
H         60.19326       31.93186       48.55105
H         59.19892       33.44435       50.45668
H         59.07551       34.74423       49.23043
H         58.15433       33.20444       49.01885
H         59.26517       33.25520       46.67675
H         60.39019       34.62218       47.07128
H         61.03756       33.02051       46.53056
N         63.72543       34.04630       48.13617
C         65.10721       33.79220       47.75758
C         65.35446       34.05875       46.28530
O         64.95597       35.10190       45.77755
C         65.99620       34.66008       48.66581
C         67.44943       34.28399       48.59125
N         67.85776       33.05798       48.99829
O         68.26818       35.09798       48.19365
H         63.43397       35.02956       48.26438
H         65.35973       32.72938       47.96670
H         65.68356       34.52242       49.72445
H         65.84612       35.73160       48.40470
H         67.17924       32.37182       49.36185
H         68.85517       32.80337       48.96998
N         65.99352       33.12136       45.52919
C         66.18095       33.22970       44.08482
C         66.74321       31.93938       43.52362
O         67.56968       31.29671       44.16767
C         67.15903       34.36778       43.67146
C         67.32573       34.47024       42.15672
C         66.33659       35.08082       41.36395
C         68.46498       33.92951       41.52650
C         66.49669       35.16938       39.97334
C         68.61212       34.00463       40.13638
C         67.63325       34.63476       39.35679
O         67.77750       34.73314       38.01813
H         66.31676       32.26318       46.00739
H         65.18065       33.40188       43.62870
H         68.14573       34.13451       44.12953
H         66.85271       35.35942       44.06178
H         65.45096       35.49912       41.82345
H         69.22727       33.42868       42.10908
H         65.73823       35.65657       39.37260
H         69.48626       33.57156       39.66457
H         68.56410       34.39810       37.56282
N         66.49234       31.62659       42.22767
C         67.20692       30.58748       41.50980
C         67.03477       30.78475       39.99900
O         68.04791       30.97430       39.34305
C         66.87899       29.15556       42.01301
C         67.85883       28.11703       41.43308
C         67.56520       26.73795       41.95354
O         67.57476       26.49894       43.27940
O         67.33401       25.82508       41.17682
H         65.86591       32.25612       41.70059
H         68.29040       30.74477       41.72381
H         65.83698       28.87231       41.78944
H         66.98618       29.11829       43.11677
H         68.89499       28.38500       41.73680
H         67.81187       28.11383       40.32208
N         65.82826       30.77342       39.33926
C         64.51854       30.58181       39.96024
C         63.51820       31.65243       39.52432
O         63.78842       32.39234       38.58652
C         64.02434       29.16638       39.62360
C         63.64862       28.94309       38.15192
C         63.47745       27.47449       37.90116
O         62.75941       26.72285       38.75305
O         64.05311       26.94335       36.96581
H         65.85579       30.88192       38.31386
H         64.59814       30.62062       41.05751
H         63.14068       28.91925       40.25184
H         64.84033       28.46220       39.88696
H         64.42966       29.31939       37.45833
H         62.70145       29.48349       37.94038
N         62.31961       31.77330       40.16271
C         61.30265       32.71141       39.72549
H         60.42402       32.66157       40.40465
H         61.69002       33.75296       39.72615
H         60.96213       32.44504       38.70161
H         62.12125       31.18089       40.98229
Ca        60.43370       25.35747       39.17954
O         61.94314       23.07688       39.35910
H         61.42159       22.98082       40.18614
H         61.95505       22.15887       39.00078
O         59.95559       26.90465       36.49013
H         59.58312       27.82160       36.49689
H         59.53854       26.47409       35.70238
O         62.30631       24.35963       36.76967
H         62.99126       23.78078       36.35140
H         62.31744       25.18950       36.23133
O         59.25937       23.87322       36.85673
H         58.31648       23.58008       36.79045
H         59.78354       23.03344       36.86650
O         60.42193       28.41238       39.19358
H         60.50557       28.80049       40.09995
H         59.87852       29.06686       38.68821
O         58.41588       23.38296       40.02557
H         57.90869       22.54261       39.91104
H         58.96845       23.21566       40.82608

Ca 1.70



