%chk=loop4.cluster109.chk
%nprocshared=48
%mem=10GB
%nosave
#b3lyp/svp scf=(tight,noincore) Test 
#IOP(5/87=12) Density=Current Pop=(MK,readradii) iop(6/33=2) iop(6/42=6)

loop4.cluster109 

   -3  1 
C         53.85127       30.65111       29.24659
C         54.78007       31.80751       29.03768
O         55.93713       31.58377       28.73273
H         52.98044       30.76286       28.56637
H         54.35632       29.68922       29.00751
H         53.50046       30.62888       30.29756
N         54.30970       33.08558       29.13973
C         55.06717       34.29052       28.79460
C         55.90262       34.16811       27.52536
O         57.01076       33.67900       27.56290
C         55.73545       35.00407       29.98760
C         56.44749       34.17674       31.04133
O         56.09778       34.31493       32.20339
O         57.46476       33.32099       30.78911
H         53.30622       33.20446       29.34723
H         54.28702       35.02681       28.50020
H         54.91062       35.51741       30.53934
H         56.38708       35.81709       29.60191
N         55.40663       34.63091       26.34840
C         56.04993       34.43956       25.05629
C         57.46869       35.01357       24.97625
O         58.27101       34.50440       24.20396
C         55.86594       32.98985       24.48048
C         54.37038       32.56681       24.33701
C         56.67915       31.89836       25.19581
C         53.60885       32.21221       25.62600
H         54.49627       35.11325       26.34609
H         55.46881       35.07483       24.35044
H         56.25687       33.03532       23.43882
H         54.33244       31.65720       23.69918
H         53.81606       33.36808       23.80216
H         56.34144       31.75262       26.23508
H         56.55390       30.92746       24.67141
H         57.75945       32.14764       25.20197
H         53.51727       33.05708       26.32858
H         52.57351       31.90917       25.36287
H         54.08219       31.35483       26.14603
N         57.78854       36.17542       25.62120
C         59.00363       36.94641       25.32599
C         60.27303       36.34123       25.93714
O         60.35554       36.29700       27.15457
C         58.86548       38.38502       25.87192
C         57.60575       39.05621       25.39917
O         56.70066       39.49122       26.29749
O         57.39183       39.19804       24.20630
H         57.07239       36.59658       26.23471
H         59.07222       37.03859       24.22288
H         59.74081       38.98557       25.54412
H         58.85023       38.36714       26.98481
N         61.32666       35.87498       25.19692
C         61.33716       35.82424       23.74718
C         61.54764       37.18375       23.11521
O         61.90461       38.12010       23.81549
H         62.13520       35.47165       25.69580
H         60.39917       35.34916       23.42609
H         62.16657       35.17381       23.40054
N         61.33294       37.39713       21.78406
C         60.79093       36.38174       20.87672
C         61.84773       35.36560       20.47582
O         63.02407       35.61558       20.70297
C         60.13555       37.08273       19.65496
C         61.05089       38.00778       18.90384
O         60.80562       39.33259       18.90567
O         62.00243       37.56831       18.27957
H         61.47100       38.35728       21.43236
H         59.96338       35.85408       21.38974
H         59.29332       37.68417       20.05790
H         59.70520       36.37840       18.92157
N         61.53709       34.18810       19.86102
C         60.18354       33.64647       19.75528
C         60.09923       32.56011       18.70584
O         59.18864       32.58620       17.88907
H         62.32780       33.57775       19.61231
H         59.42466       34.40519       19.51187
H         59.89732       33.23120       20.74797
N         61.01063       31.55026       18.69240
C         60.95011       30.40919       17.79000
C         60.65505       29.14600       18.58313
O         60.47289       28.09265       17.98790
C         62.30154       30.27024       17.06929
C         62.61748       31.44298       16.12883
C         61.67663       31.47531       14.94978
N         60.97019       32.59067       14.65527
O         61.56406       30.48474       14.24254
H         61.76753       31.55571       19.39175
H         60.12398       30.52030       17.05288
H         62.33026       29.32814       16.48037
H         63.10149       30.20486       17.84077
H         63.64597       31.29701       15.73745
H         62.60215       32.40556       16.68736
H         61.06800       33.44370       15.22410
H         60.33704       32.60166       13.84158
N         60.53843       29.19889       19.94036
C         60.14664       28.07345       20.75920
C         61.19496       26.99393       20.77678
O         62.37542       27.28156       20.63168
C         59.73876       28.53914       22.18221
C         58.45691       29.38456       22.06765
C         60.84062       29.33266       22.92544
H         60.66914       30.08917       20.41500
H         59.23532       27.63099       20.29800
H         59.49813       27.63472       22.78166
H         58.62183       30.29130       21.44737
H         57.65361       28.78225       21.58921
H         58.09651       29.70854       23.05996
H         61.77959       28.74675       22.98872
H         61.06984       30.31134       22.45665
H         60.50766       29.57811       23.95132
N         60.78701       25.69459       20.86172
C         61.63859       24.52477       20.70104
C         62.55857       24.20727       21.88787
O         62.97597       23.06395       21.99640
C         62.41110       24.60066       19.37120
C         63.08116       23.29988       19.05352
N         64.42194       23.18022       19.17445
O         62.40845       22.33743       18.71592
H         59.77280       25.51798       20.94719
H         60.92959       23.66541       20.64240
H         63.17873       25.39601       19.44972
H         61.73434       24.87608       18.53099
H         64.98997       23.97568       19.50317
H         64.88291       22.28098       18.98142
N         62.87977       25.13762       22.83690
C         63.66643       24.78889       24.02544
C         63.35391       25.75135       25.17357
O         62.84754       26.83818       24.93860
C         65.17767       24.76302       23.69408
C         66.03651       24.22502       24.81818
C         65.96499       22.86737       25.17695
C         66.93124       25.06804       25.49912
C         66.77779       22.36241       26.19847
C         67.73518       24.56238       26.52684
C         67.66276       23.20673       26.87711
O         68.44055       22.70780       27.86000
H         62.50972       26.08561       22.75010
H         63.31805       23.78767       24.36164
H         65.48332       25.80037       23.43344
H         65.37282       24.13189       22.79975
H         65.29128       22.19937       24.65532
H         67.00025       26.11707       25.24128
H         66.72318       21.31291       26.46069
H         68.41441       25.22402       27.05001
H         69.06732       23.26365       28.34539
N         63.52168       25.33916       26.46712
C         63.12225       26.14320       27.62594
C         61.62675       26.44364       27.70889
O         61.22821       27.11976       28.64991
C         64.03767       27.38164       27.80140
C         65.41118       27.00582       28.40471
C         65.33726       26.67355       29.88347
O         64.72526       25.69586       30.28235
O         65.96661       27.46191       30.77544
H         63.90683       24.40212       26.64313
H         63.25440       25.52054       28.52216
H         63.59166       28.12809       28.49423
H         64.17199       27.88923       26.82241
H         66.07837       27.88767       28.30929
H         65.87177       26.16560       27.84822
N         60.72276       25.86848       26.86083
C         59.28081       25.91882       27.08239
C         58.72000       24.51807       27.28806
O         57.50743       24.37673       27.35920
C         58.58807       26.63440       25.90068
C         58.98195       28.11844       25.85515
C         58.44488       28.89650       27.02354
O         58.79657       30.05112       27.19570
O         57.52637       28.34965       27.84412
H         61.04937       25.29543       26.07077
H         59.03028       26.46482       28.01425
H         57.48046       26.57814       25.99948
H         58.86757       26.13378       24.94960
H         58.56464       28.59054       24.94867
H         60.08904       28.19413       25.82127
N         59.54440       23.44242       27.47583
C         59.03358       22.11770       27.75495
H         58.00441       21.97667       27.36327
H         59.69205       21.36394       27.27503
H         59.04535       21.94768       28.85200
H         60.56343       23.57290       27.53149
Ca        58.53027       32.32063       29.05658
O         60.68294       31.46302       30.49730
H         60.76053       30.69124       31.11087
H         61.56496       31.90893       30.52412
O         60.05291       34.48132       29.63741
H         60.13471       35.34212       30.11319
H         59.60812       34.70897       28.78362
O         60.32665       32.97323       26.83695
H         60.56260       32.90360       25.87909
H         61.07257       33.48333       27.24149
O         58.15195       29.91587       30.50159
H         57.62663       29.55789       31.25680
H         57.57701       29.75335       29.71752

Ca 1.70



