%chk=loop4.cluster57.chk
%nprocshared=48
%mem=10GB
%nosave
#b3lyp/svp scf=(tight,noincore) Test 
#IOP(5/87=12) Density=Current Pop=(MK,readradii) iop(6/33=2) iop(6/42=6)

loop4.cluster57 

   -3  1 
C         44.21374       41.04211       43.04352
C         43.45906       40.81765       44.32678
O         43.96995       41.15186       45.38553
H         45.19622       40.53073       43.08826
H         43.65592       40.64550       42.16790
H         44.37979       42.12872       42.88504
N         42.20378       40.28181       44.29759
C         41.37407       40.03591       45.48260
C         41.21883       41.29643       46.32779
O         41.32177       41.25182       47.54439
C         41.91584       38.84165       46.28381
C         42.08906       37.65601       45.38616
O         43.31475       37.13783       45.18976
O         41.12517       37.17741       44.81119
H         41.78970       40.06168       43.37819
H         40.36254       39.75983       45.10782
H         41.21130       38.57309       47.10001
H         42.89810       39.10343       46.73149
N         41.06903       42.48284       45.69085
C         41.10737       43.79177       46.34779
C         39.78855       44.08985       47.07176
O         38.76016       43.65908       46.57114
C         41.45354       44.83619       45.23772
C         41.85785       46.20415       45.81342
C         40.33230       44.97686       44.17957
C         42.47706       47.13056       44.77101
H         41.07904       42.44665       44.66444
H         41.96492       43.78392       47.04920
H         42.36374       44.43265       44.73621
H         42.64745       46.04101       46.57896
H         40.97577       46.70241       46.26953
H         40.01136       44.00754       43.75286
H         39.43683       45.46119       44.61896
H         40.68491       45.57212       43.31664
H         41.75285       47.38932       43.97468
H         42.79552       48.07181       45.26355
H         43.36933       46.64469       44.32024
N         39.68488       44.83834       48.22055
C         40.79165       45.42292       48.98190
C         41.66572       44.33344       49.54401
O         42.88136       44.42947       49.45088
C         40.28178       46.29951       50.14964
C         39.29851       47.34559       49.69636
O         39.62937       48.20242       48.89210
O         38.03968       47.32978       50.17555
H         38.73121       44.99502       48.58464
H         41.38389       46.11084       48.36131
H         41.14679       46.81449       50.63045
H         39.79244       45.66268       50.91488
N         41.09463       43.22407       50.09733
C         41.89286       42.12254       50.59183
C         42.64609       42.51260       51.82963
O         42.27349       43.46301       52.49960
H         40.06879       43.13103       50.11161
H         42.59929       41.80805       49.79416
H         41.24799       41.25345       50.84057
N         43.74864       41.80071       52.18386
C         44.52809       42.13797       53.36898
C         45.17684       43.52288       53.25086
O         45.74961       43.98739       54.23109
C         45.59180       41.03392       53.58797
C         46.31878       41.11626       54.90168
O         47.36601       40.50643       55.04636
O         45.71408       41.65258       55.97935
H         44.03120       40.99986       51.60092
H         43.82866       42.12969       54.23214
H         46.32338       41.04801       52.74944
H         45.09535       40.03815       53.56641
N         45.18630       44.22173       52.07001
C         45.89827       45.47730       51.89909
C         47.31645       45.24273       51.41503
O         47.90982       46.13795       50.83485
H         44.79918       43.78998       51.21817
H         45.95860       46.04835       52.85045
H         45.32872       46.11969       51.19024
N         47.93313       44.05343       51.68577
C         49.32961       43.74300       51.43206
C         49.70164       43.98234       49.98791
O         50.63504       44.73037       49.71659
C         50.25036       44.42242       52.47826
C         49.69109       44.22173       53.90850
C         50.69941       44.41153       55.01222
N         50.35167       44.12412       56.28894
O         51.83868       44.77634       54.76139
H         47.40833       43.31586       52.16174
H         49.44176       42.65226       51.62467
H         50.39762       45.50936       52.29444
H         51.23544       43.91239       52.38900
H         49.32644       43.17865       54.00649
H         48.82637       44.90748       54.07137
H         49.40089       43.79008       56.50921
H         51.04138       44.20397       57.05046
N         48.97219       43.40301       48.99100
C         49.14825       43.78266       47.59435
C         50.20784       42.96134       46.90689
O         50.09993       41.74156       46.86240
C         47.81798       43.82327       46.79897
C         47.11248       42.46960       46.59906
C         46.85835       44.82287       47.45830
H         48.17017       42.80776       49.25496
H         49.48852       44.84139       47.56950
H         48.07411       44.21064       45.78746
H         46.76274       42.03847       47.55947
H         46.22887       42.62011       45.94227
H         47.76656       41.73598       46.08688
H         46.53187       44.45654       48.45528
H         47.36313       45.80397       47.59372
H         45.96592       44.97733       46.81929
N         51.28043       43.58701       46.34206
C         52.34568       42.87165       45.66286
C         52.57735       43.45517       44.26035
O         51.83563       44.33182       43.83209
C         53.59631       42.94732       46.56285
C         54.62279       41.85498       46.33975
N         55.82398       41.93365       46.94824
O         54.36482       40.87991       45.64658
H         51.36740       44.61211       46.43338
H         52.06566       41.80175       45.55357
H         53.28972       42.82032       47.62428
H         54.04100       43.96026       46.46082
H         56.05230       42.74017       47.54619
H         56.52753       41.19500       46.80368
N         53.60451       42.99962       43.49374
C         53.82808       43.33118       42.09789
C         53.87459       42.00341       41.38373
O         54.90962       41.56479       40.89944
C         55.06335       44.21469       41.88790
C         56.34026       43.78124       42.55717
C         57.42784       43.35009       41.78457
C         56.48032       43.88350       43.95208
C         58.64365       43.03727       42.39578
C         57.69908       43.57940       44.56020
C         58.78853       43.16447       43.78139
O         59.98064       42.90335       44.35306
H         54.23937       42.30452       43.88533
H         52.98057       43.90728       41.66352
H         54.83473       45.23620       42.26066
H         55.20644       44.30167       40.78855
H         57.33608       43.26915       40.70867
H         55.65818       44.23211       44.56347
H         59.47992       42.71671       41.78878
H         57.80180       43.68483       45.63278
H         60.12699       43.03179       45.30105
N         52.74150       41.26789       41.41235
C         52.60949       39.90675       40.94859
C         51.43692       39.74334       39.97289
O         51.69367       39.19638       38.90919
C         52.51909       38.97313       42.16764
C         52.58882       37.47159       41.82498
C         53.93418       37.01979       41.30110
O         54.65297       36.11783       41.99699
O         54.36537       37.43451       40.23751
H         51.96355       41.69809       41.89255
H         53.53970       39.62811       40.41504
H         51.57737       39.18148       42.71260
H         53.36282       39.19998       42.85962
H         51.79121       37.20466       41.10131
H         52.39861       36.91341       42.76613
N         50.14163       40.18693       40.16531
C         49.58079       40.97829       41.27215
C         49.46996       42.42137       40.78847
O         50.28651       43.24451       41.17864
C         48.19423       40.42314       41.66423
C         48.29550       39.19226       42.57451
C         47.12112       38.28836       42.37295
O         46.27789       38.00184       43.37527
O         46.95614       37.75676       41.28620
H         49.50554       40.04697       39.36399
H         50.17593       40.94819       42.19608
H         47.66335       40.17808       40.71889
H         47.57428       41.17963       42.19683
H         48.38602       39.53620       43.63147
H         49.18878       38.58479       42.32807
N         48.50725       42.79722       39.90105
C         48.46763       44.13429       39.34919
H         48.34293       44.89395       40.15076
H         49.41317       44.32928       38.79933
H         47.62258       44.21992       38.63444
H         47.79208       42.12263       39.59777
Ca        44.74428       36.43359       42.87898
O         44.55975       35.82671       39.88115
H         43.67165       35.95950       39.46498
H         45.20604       35.96049       39.14320
O         46.71094       35.16798       44.57658
H         46.86187       34.22534       44.83710
H         47.61056       35.58087       44.58333
O         44.05851       33.63919       43.64724
H         44.49456       32.76109       43.51049
H         43.32787       33.46030       44.29013
O         42.15617       35.59962       42.03395
H         42.02489       36.26107       42.75534
H         41.35822       35.70568       41.46095
O         46.24625       33.84101       41.61630
H         46.92939       33.17455       41.87884
H         46.36119       33.94332       40.63879

Ca 1.70



