%chk=loop2.cluster89.chk
%nprocshared=48
%mem=10GB
%nosave
#b3lyp/svp scf=(tight,noincore) Test 
#IOP(5/87=12) Density=Current Pop=(MK,readradii) iop(6/33=2) iop(6/42=6)

loop2.cluster89 

   -2  1 
C        106.43459       69.42799       -0.14320
C        104.93608       69.40001       -0.01905
O        104.37218       68.32003       -0.11816
H        106.90502       69.76440        0.80379
H        106.81341       68.40670       -0.37195
H        106.72897       70.09385       -0.97966
N        104.18432       70.52350        0.19534
C        104.72197       71.86834        0.40800
C        104.28216       72.89087       -0.62936
O        103.43940       72.59925       -1.45782
C        104.32586       72.32546        1.82709
C        102.85830       72.26373        2.22653
O        101.83496       72.05336        1.36808
O        102.58521       72.40277        3.40691
H        103.16824       70.39973        0.25926
H        105.82846       71.85386        0.34808
H        104.69313       73.35474        2.03164
H        104.85966       71.64268        2.52024
N        104.87223       74.12792       -0.64623
C        104.46518       75.22965       -1.51717
C        103.13369       75.78338       -1.03377
O        103.09975       76.35259        0.04923
C        104.53067       74.87345       -3.01773
H        105.64474       74.30772        0.01165
H        105.19410       76.06203       -1.39396
H        104.26224       75.77332       -3.61542
H        105.55907       74.56976       -3.29893
H        103.84112       74.05832       -3.31193
N        101.99447       75.64910       -1.76869
C        100.69239       76.13114       -1.31343
C        100.28428       75.49635        0.01351
O        100.61596       74.34810        0.25815
C         99.62759       75.97726       -2.42570
C         99.48229       74.62008       -3.07526
O        100.24424       73.57578       -2.70413
O         98.66556       74.47187       -3.97000
H        102.04676       75.17515       -2.67600
H        100.77005       77.22600       -1.13289
H         99.90996       76.67195       -3.24481
H         98.64501       76.29986       -2.02160
N         99.61896       76.23457        0.95328
C         99.41007       75.77035        2.31985
C         97.96213       75.50483        2.65863
O         97.08189       76.20427        2.17852
H         99.31231       77.19086        0.71722
H         99.78868       76.55447        3.01141
H        100.00578       74.86147        2.54592
N         97.66065       74.49630        3.53156
C         96.30883       74.19807        3.99260
C         96.23887       74.18289        5.51483
O         97.23482       73.94524        6.18202
C         95.85325       72.82208        3.46329
C         95.46347       72.85561        2.00911
N         94.45212       73.64808        1.58630
O         96.02393       72.12611        1.21365
H         98.43132       73.92198        3.90439
H         95.59329       74.97455        3.64873
H         94.94193       72.48926        3.99858
H         96.65885       72.07309        3.65014
H         93.93116       74.23618        2.25180
H         94.17928       73.65581        0.59263
N         95.03537       74.38734        6.11827
C         94.84773       74.31167        7.56667
C         93.39586       74.58398        7.94261
O         92.66270       75.11512        7.12146
H         94.22668       74.57452        5.50878
H         95.50365       75.04090        8.09015
H         95.12554       73.28958        7.88708
N         92.85922       74.23276        9.14729
C         93.55138       73.51173       10.21624
C         93.45755       71.99789       10.05256
O         94.06268       71.28523       10.84117
C         92.96413       73.95224       11.58510
C         93.40082       75.37694       11.91669
O         91.55514       73.90705       11.56445
H         91.84523       74.39202        9.25600
H         94.63881       73.74432       10.19808
H         93.35706       73.31196       12.40972
H         91.26421       73.05044       11.96791
H         93.10785       76.08187       11.11045
H         92.93274       75.70315       12.86889
H         94.50505       75.40522       12.03910
N         92.76844       71.44344        9.01333
C         92.68052       70.01588        8.72753
C         91.74875       69.38047        9.75452
O         92.13702       69.27675       10.90788
C         94.07332       69.31724        8.57641
C         95.11265       70.16345        7.78751
C         93.91767       67.93609        7.91910
C         94.60760       70.76227        6.47256
H         92.27094       72.06305        8.36139
H         92.22138       69.96084        7.72749
H         94.52081       69.14094        9.57926
H         96.00808       69.53564        7.58521
H         95.46166       71.00666        8.41931
H         93.22779       67.30123        8.50892
H         93.53004       68.02908        6.88508
H         94.90053       67.41948        7.86843
H         94.18494       69.99223        5.80020
H         93.83573       71.53571        6.66289
H         95.45494       71.26431        5.96478
N         90.45593       69.03299        9.46277
C         89.88276       69.00500        8.12004
C         90.46465       67.82074        7.37996
O         91.05742       67.97967        6.32476
C         88.32002       68.97176        8.11502
C         87.51250       68.01086        8.97793
O         88.06340       67.26582        9.95272
O         86.30108       67.98211        8.84029
H         89.86280       68.74568       10.25181
H         90.11387       69.94434        7.56866
H         88.01229       68.81370        7.05615
H         87.96377       69.98208        8.40543
N         90.29800       66.58716        7.91546
C         90.76789       65.35204        7.33701
C         89.54669       64.59269        6.82809
O         88.47768       64.76655        7.38846
C         91.51262       64.51623        8.41295
C         90.63723       64.05499        9.57098
C         90.32933       64.91718       10.64275
C         90.13140       62.74208        9.58716
C         89.52645       64.47432       11.69900
C         89.32954       62.30524       10.64699
C         89.02845       63.16981       11.70189
H         89.76178       66.51151        8.76448
H         91.47831       65.57333        6.52380
H         92.38840       65.06836        8.81454
H         91.92651       63.61894        7.91237
H         90.71543       65.92812       10.66721
H         90.35024       62.06174        8.77374
H         89.29353       65.14256       12.51849
H         88.94150       61.29479       10.65066
H         88.41146       62.82788       12.52336
N         89.63293       63.67804        5.81246
C         90.83203       63.35120        5.07188
C         91.34923       64.47890        4.19282
O         90.80837       65.58011        4.21232
C         90.36290       62.22102        4.13625
C         89.17159       61.62779        4.85460
C         88.49962       62.85489        5.45191
H         91.60559       62.97644        5.77477
H         89.95364       62.65875        3.19871
H         91.16264       61.49600        3.87018
H         88.50930       61.00709        4.21354
H         89.56227       61.01192        5.69273
H         87.88669       63.41404        4.71130
H         87.88287       62.53476        6.31922
N         92.32842       64.20697        3.29056
C         92.74530       65.12914        2.25221
C         94.26597       65.08335        2.01165
O         94.65606       65.30032        0.87260
C         91.98360       64.68019        0.96460
C         90.48471       65.04350        0.98373
C         90.29546       66.52049        0.76936
O         89.72409       67.28076        1.72139
O         90.65609       67.03422       -0.27876
H         92.69845       63.24464        3.24796
H         92.47104       66.18595        2.47157
H         92.09646       63.57628        0.86998
H         92.40473       65.12765        0.04042
H         90.00539       64.71829        1.92723
H         89.96048       64.51615        0.15887
N         95.22338       64.85208        2.96914
C         95.03559       64.62267        4.39041
H         94.00769       64.68665        4.76042
H         95.44751       63.62246        4.64796
H         95.60726       65.38711        4.95414
H         96.20440       64.84350        2.64925
Ca       101.10767       71.76189       -0.76739
O         98.31959       70.12764       -1.39307
H         98.39597       69.14114       -1.35926
H         97.34853       70.29934       -1.48195
O         99.19286       71.62574        1.18738
H         99.47390       71.69572        2.13176
H         98.23530       71.41402        1.23490
O        101.58029       71.00831       -3.53591
H        101.05508       70.80253       -4.34881
H        102.29202       71.62345       -3.84459
O        101.33462       69.03677       -0.91510
H        102.20992       68.93165       -1.36544
H        101.48086       68.71825        0.01104
O         97.75682       73.27830       -1.30894
H         97.33974       74.16843       -1.41946
H         97.51910       73.01743       -0.39210

Ca 1.70



