%chk=loop1.cluster122.chk
%nprocshared=48
%mem=10GB
%nosave
#b3lyp/svp scf=(tight,noincore) Test 
#IOP(5/87=12) Density=Current Pop=(MK,readradii) iop(6/33=2) iop(6/42=6)

loop1.cluster122 

   0  1 
C         47.16272       38.80100        8.17608
C         47.46486       38.70000        6.71364
O         48.43906       39.27799        6.26609
H         46.16003       38.38141        8.39995
H         47.91668       38.20813        8.73220
H         47.18780       39.85724        8.51306
N         46.64675       37.97433        5.90617
C         46.88900       37.73858        4.48737
C         46.13698       38.74018        3.64295
O         45.32294       38.36581        2.81056
C         46.70504       36.23951        4.09703
C         45.47770       35.46785        4.54516
O         45.36301       34.29966        4.20919
O         44.53307       36.01094        5.33377
H         45.80955       37.57532        6.33465
H         47.93980       37.97099        4.23150
H         47.57281       35.67608        4.49822
H         46.74900       36.18209        2.99046
N         46.45335       40.06463        3.76866
C         45.91945       41.11611        2.91645
C         46.97514       42.22855        2.79353
O         47.14055       42.94474        3.77300
C         44.65311       41.71403        3.59269
C         43.45542       40.75646        3.71935
C         42.80000       40.47010        2.35998
C         41.59396       39.52252        2.47091
N         42.00529       38.12496        2.62307
H         47.19020       40.32585        4.43804
H         45.67956       40.70273        1.92897
H         44.32230       42.62936        3.05547
H         44.93551       42.02075        4.62695
H         42.68972       41.25903        4.35239
H         43.75512       39.83160        4.24876
H         43.51812       40.05258        1.62455
H         42.44088       41.44559        1.96636
H         41.00844       39.60374        1.53017
H         40.92935       39.83065        3.31000
H         42.61731       37.84922        1.81979
H         42.51176       37.97157        3.52310
H         41.15412       37.51764        2.60244
N         47.78667       42.45230        1.70224
C         47.94162       41.66517        0.46903
C         46.75630       41.73055       -0.48429
O         45.63844       41.92137       -0.03411
C         48.32812       40.19663        0.76527
C         49.51620       40.12157        1.66865
O         50.70685       40.56231        1.22763
O         49.40346       39.66828        2.79399
H         48.45181       43.23767        1.79774
H         48.79736       42.13704       -0.06542
H         48.57148       39.64245       -0.16487
H         47.48020       39.66663        1.23106
N         46.89066       41.52672       -1.83191
C         48.16580       41.48656       -2.54161
C         47.92943       41.10336       -3.99992
O         47.61349       41.98787       -4.77991
H         46.02647       41.46393       -2.39289
H         48.92415       40.86899       -2.04170
H         48.61119       42.50523       -2.51137
N         47.92769       39.80487       -4.43941
C         48.32608       38.66337       -3.63152
C         47.13205       37.88330       -3.13823
O         46.05502       37.93876       -3.71999
C         49.28952       37.76073       -4.44223
C         49.89870       36.62863       -3.65176
O         50.58260       36.88429       -2.51944
O         49.81379       35.48008       -4.05815
H         47.62921       39.62024       -5.41129
H         48.89271       38.98849       -2.74739
H         50.12727       38.38730       -4.80761
H         48.75277       37.34606       -5.32646
N         47.28657       37.11587       -2.03756
C         46.27354       36.20165       -1.53608
C         46.73784       35.46061       -0.29139
O         45.89535       35.04203        0.49163
H         48.18015       37.21756       -1.54813
H         46.00574       35.45935       -2.31962
H         45.36613       36.79188       -1.28351
N         48.06869       35.27057       -0.03252
C         48.59698       34.74137        1.20683
C         49.43706       35.82674        1.86828
O         49.52094       36.93681        1.34227
C         49.39115       33.45430        0.87905
C         48.44083       32.38726        0.32082
O         50.06562       32.93947        1.99690
H         48.77626       35.52628       -0.73223
H         47.78503       34.47780        1.91940
H         50.16032       33.69218        0.11024
H         49.38329       32.68553        2.67125
H         47.63847       32.17823        1.06299
H         47.96511       32.73094       -0.62155
H         48.99687       31.45012        0.12210
N         50.01800       35.61381        3.07670
C         50.69190       36.66350        3.81783
C         52.05168       37.04556        3.25157
O         52.51043       38.12807        3.54334
C         50.77936       36.27515        5.32348
C         51.08479       37.51196        6.19085
C         51.76073       35.11422        5.59032
C         50.76649       37.29528        7.67044
H         49.86051       34.71002        3.54098
H         50.03298       37.54748        3.75912
H         49.75602       35.93870        5.60583
H         50.42266       38.31134        5.83998
H         52.11977       37.88604        6.06044
H         51.74724       34.82688        6.66057
H         51.48868       34.21144        5.00644
H         52.79626       35.39742        5.31327
H         49.75057       36.85759        7.78924
H         51.51030       36.62737        8.14631
H         50.77516       38.27575        8.19189
N         52.78316       36.13360        2.54373
C         54.19883       36.23957        2.16264
C         55.12204       36.24833        3.38761
O         55.78655       35.25181        3.60617
C         54.54212       37.30814        1.08740
C         55.95687       37.03057        0.53804
O         54.47824       38.60642        1.60798
H         52.33343       35.23332        2.33315
H         54.39823       35.27165        1.64902
H         53.81666       37.21539        0.24711
H         54.76526       39.22646        0.88733
H         55.99277       36.01926        0.07800
H         56.23463       37.76917       -0.24205
H         56.71237       37.07831        1.35118
N         55.21512       37.33833        4.20928
C         55.99724       37.45933        5.44267
C         57.49947       37.44725        5.22600
O         57.99710       36.69892        4.39774
C         55.50450       36.56030        6.62982
C         55.84255       37.19349        7.98756
O         56.01546       35.24758        6.64374
H         54.69028       38.17266        3.95207
H         55.76027       38.49466        5.78345
H         54.39732       36.51661        6.59099
H         56.37299       35.00350        5.76309
H         55.44250       36.55868        8.80567
H         56.93314       37.29097        8.13839
H         55.37864       38.19959        8.07702
N         58.27983       38.26433        5.98916
C         59.72429       38.31096        5.93412
C         60.35899       39.65553        5.53876
O         61.47578       39.56122        5.04390
C         60.31687       37.82139        7.28316
C         59.97969       36.35148        7.63202
C         60.49630       35.36298        6.57223
C         60.16285       33.90631        6.90260
N         60.48653       33.04248        5.76298
H         57.81791       38.82858        6.68743
H         60.07792       37.62708        5.13839
H         59.93908       38.47875        8.09957
H         61.42399       37.91589        7.26447
H         58.88376       36.22857        7.73237
H         60.44034       36.10871        8.61606
H         61.59890       35.47085        6.46118
H         60.01442       35.57422        5.60335
H         59.07663       33.80414        7.12514
H         60.73862       33.59420        7.80101
H         61.42809       33.27365        5.36989
H         60.47922       32.04289        6.06603
H         59.76496       33.17029        5.01459
N         59.86546       40.93549        5.70896
C         58.58980       41.44198        6.23253
C         58.29790       41.08856        7.69202
O         57.24990       40.53822        7.99489
C         57.44751       41.26191        5.19860
C         56.09956       41.86242        5.65921
C         55.04184       41.69362        4.61984
O         54.77765       40.58151        4.20110
O         54.33974       42.75567        4.18522
H         60.50672       41.68275        5.39555
H         58.69330       42.55102        6.27070
H         57.30045       40.20701        4.93071
H         57.75992       41.78442        4.26487
H         56.21270       42.93794        5.91694
H         55.71196       41.33230        6.54435
N         59.14762       41.48127        8.67708
C         58.81914       41.31038       10.08222
H         57.80403       40.88210       10.23978
H         59.55594       40.63928       10.56306
H         58.82846       42.30133       10.58292
H         60.03014       41.95389        8.43093
Ca        52.63267       40.55433        2.39796
O         52.96697       40.54276       -0.56099
H         53.67615       40.05721       -1.04978
H         52.16852       39.96822       -0.66488
O         51.40354       41.47451        4.73985
H         50.88336       41.70537        5.54663
H         50.71394       41.26594        4.06450
O         52.18069       43.08240        1.44732
H         51.57066       43.67733        1.94992
H         52.41411       43.57874        0.62473
O         55.32848       41.94164        1.15550
H         55.42200       42.04115        0.17487
H         55.75145       42.75451        1.53011

Ca 1.70



