%chk=loop2.cluster218.chk
%nprocshared=48
%mem=10GB
%nosave
#b3lyp/svp scf=(tight,noincore) Test 
#IOP(5/87=12) Density=Current Pop=(MK,readradii) iop(6/33=2) iop(6/42=6)

loop2.cluster218 

   -2  1 
C         54.37041       21.99061      -14.98806
C         54.28540       20.53604      -15.32183
O         55.20374       19.79715      -14.99735
H         55.26411       22.42130      -15.48545
H         53.47043       22.53664      -15.34128
H         54.45818       22.11437      -13.88959
N         53.20561       20.05033      -15.99336
C         53.11828       18.66669      -16.42014
C         53.87460       18.52496      -17.74248
O         53.39373       18.92834      -18.78979
C         51.65435       18.21735      -16.36817
C         51.33879       16.91982      -17.04672
O         52.04261       15.77608      -16.89097
O         50.38355       16.91149      -17.78790
H         52.46372       20.70427      -16.28619
H         53.60647       18.02673      -15.65676
H         51.04771       18.98382      -16.90056
H         51.29979       18.21905      -15.31245
N         55.15171       18.06022      -17.69150
C         56.12542       17.94739      -18.76233
C         55.68799       17.00589      -19.86227
O         55.72720       17.39533      -21.02042
C         57.45471       17.45209      -18.14483
H         55.50652       17.85797      -16.77707
H         56.31212       18.95827      -19.18004
H         57.75744       18.12529      -17.30941
H         57.34566       16.42947      -17.71652
H         58.27065       17.44780      -18.89297
N         55.26708       15.74010      -19.57550
C         54.76920       14.83548      -20.61535
C         53.32878       15.11967      -21.00555
O         52.84677       14.51268      -21.95311
C         54.95147       13.34174      -20.24560
C         54.36615       12.85582      -18.94677
O         53.77355       13.69301      -18.07491
O         54.44600       11.66878      -18.67716
H         55.21579       15.46155      -18.58702
H         55.37486       14.98839      -21.53612
H         56.03465       13.10780      -20.21855
H         54.49308       12.73166      -21.05548
N         52.57124       16.01915      -20.32473
C         51.17776       16.25341      -20.64251
C         50.35882       14.99852      -20.42069
O         49.49613       14.70368      -21.23416
H         52.97245       16.53020      -19.52927
H         51.05629       16.64260      -21.67545
H         50.80394       17.05673      -19.99006
N         50.58194       14.20570      -19.32748
C         49.84029       12.97267      -19.07321
C         48.64978       13.20764      -18.13134
O         47.94637       12.26539      -17.79921
C         50.80986       11.87637      -18.56726
C         51.03968       11.86015      -17.07430
N         50.79051       10.72609      -16.37218
O         51.45062       12.85687      -16.50044
H         51.32940       14.46302      -18.67565
H         49.46364       12.59463      -20.04779
H         51.77811       11.97253      -19.09965
H         50.39238       10.88860      -18.84724
H         50.46185        9.87462      -16.84991
H         50.93838       10.68331      -15.35709
N         48.36058       14.46704      -17.69623
C         47.26568       14.82944      -16.81582
C         47.49370       14.49197      -15.35857
O         46.52750       14.21729      -14.66444
H         48.90847       15.24197      -18.06008
H         46.29132       14.46600      -17.20108
H         47.21118       15.94181      -16.82888
N         48.71951       14.66769      -14.79060
C         48.95919       14.57115      -13.34278
C         50.21694       15.32285      -12.94850
O         50.99185       15.71205      -13.79965
C         49.04872       13.08817      -12.83281
C         47.76044       12.60108      -12.18033
O         49.38024       12.20468      -13.86895
H         49.49191       14.96016      -15.40913
H         48.17310       15.14592      -12.80746
H         49.80898       12.99044      -12.02066
H         50.16084       12.59005      -14.33304
H         46.90348       12.65822      -12.87209
H         47.88481       11.54075      -11.86742
H         47.55201       13.20440      -11.27085
N         50.45116       15.60348      -11.64090
C         51.63952       16.29668      -11.16501
C         52.40751       15.30910      -10.31602
O         51.88269       14.79374       -9.33676
C         51.22688       17.57125      -10.38181
C         50.61805       18.62272      -11.34451
C         52.40708       18.20519       -9.61500
C         49.72442       19.61366      -10.60275
H         49.75400       15.30351      -10.94104
H         52.29435       16.61950      -12.00950
H         50.46636       17.24719       -9.63989
H         49.97284       18.14179      -12.10855
H         51.43379       19.15294      -11.89090
H         52.07881       19.07477       -9.01463
H         52.84742       17.48386       -8.90130
H         53.19509       18.55096      -10.31380
H         48.85359       19.06118      -10.18729
H         50.25474       20.12208       -9.77440
H         49.34843       20.38201      -11.30890
N         53.68378       15.00824      -10.65357
C         54.57056       14.18200       -9.87051
C         55.22445       15.04853       -8.84258
O         54.99644       16.24651       -8.82925
C         55.67714       13.61042      -10.78817
C         55.11437       12.70713      -11.83683
O         54.60752       11.51083      -11.49262
O         55.13394       13.03713      -13.00731
H         54.10544       15.56008      -11.38890
H         54.00530       13.36578       -9.36849
H         56.42996       13.02548      -10.22360
H         56.21021       14.46332      -11.26821
N         56.05733       14.51405       -7.93206
C         56.74498       15.30427       -6.93044
C         57.71463       16.33866       -7.53781
O         57.56045       17.50333       -7.21493
C         57.38983       14.34436       -5.93129
C         58.00306       15.02374       -4.74538
C         59.33938       14.76465       -4.41754
C         57.24180       15.88650       -3.93430
C         59.90931       15.35302       -3.28899
C         57.82048       16.48342       -2.81418
C         59.15195       16.21307       -2.48839
H         56.17457       13.48554       -7.93326
H         55.96778       15.87334       -6.37097
H         58.12691       13.69980       -6.45405
H         56.58302       13.68267       -5.54388
H         59.93105       14.09260       -5.02739
H         56.20431       16.09532       -4.16343
H         60.93681       15.13599       -3.03334
H         57.23310       17.14855       -2.19470
H         59.59548       16.66607       -1.61333
N         58.70305       16.02080       -8.44347
C         59.53685       17.04388       -9.07891
C         58.73676       18.07479       -9.86679
O         59.20884       19.19712      -10.00600
C         60.46775       16.21618       -9.98172
C         59.64420       14.96744      -10.27120
C         59.01375       14.69246       -8.91114
H         60.14277       17.59802       -8.32989
H         60.87213       16.74712      -10.87162
H         61.32897       15.87552       -9.36424
H         58.83360       15.23623      -10.98435
H         60.21701       14.11264      -10.69037
H         58.16120       14.00686       -9.02492
H         59.77433       14.25428       -8.22550
N         57.52356       17.78474      -10.40629
C         56.70739       18.78723      -11.09068
C         56.09765       19.76022      -10.08802
O         56.02877       20.94740      -10.36718
C         55.61470       18.10140      -11.93685
C         56.29517       17.19495      -12.98161
C         55.38831       16.46580      -13.90052
O         55.50694       16.63063      -15.08094
O         54.56112       15.51300      -13.50609
H         57.16160       16.82212      -10.32148
H         57.32889       19.35486      -11.82153
H         55.00135       18.87816      -12.44995
H         54.95205       17.51840      -11.28029
H         56.91322       16.42095      -12.50065
H         56.95158       17.83923      -13.60922
N         55.64816       19.30564       -8.88444
C         55.04584       20.13473       -7.86407
H         54.03247       19.74270       -7.63364
H         55.65495       20.06439       -6.93740
H         54.96230       21.19581       -8.16797
H         55.75843       18.32141       -8.66343
Ca        53.08359       15.11913      -15.06365
O         54.26158       11.59479      -15.37269
H         54.83840       10.79262      -15.34012
H         54.02620       11.69031      -16.32464
O         56.74716       13.73297      -15.47484
H         56.87388       13.72691      -14.49481
H         56.83875       14.68567      -15.71911
O         52.36641       12.36637      -13.43213
H         52.49266       12.36047      -12.45378
H         52.19654       11.41807      -13.65468

Ca 1.70



