%chk=loop3.cluster174.chk
%nprocshared=48
%mem=10GB
%nosave
#b3lyp/svp scf=(tight,noincore) Test 
#IOP(5/87=12) Density=Current Pop=(MK,readradii) iop(6/33=2) iop(6/42=6)

loop3.cluster174 

   0  1 

C         95.12873       57.47614       32.33763
C         95.96473       56.23913       32.44422
O         95.74932       55.41086       33.31807
H         94.18704       57.38830       32.91204
H         95.72424       58.35037       32.66856
H         94.86779       57.63262       31.26489
N         96.89662       56.02393       31.48916
C         97.67003       54.80227       31.35869
C         98.85190       54.78240       32.30451
O         99.47968       55.80300       32.53633
C         98.10737       54.70040       29.89663
C         99.05832       53.58615       29.60176
O         98.66391       52.35804       29.24304
O        100.20856       53.87281       29.40301
H         96.95721       56.72370       30.73369
H         97.02985       53.91572       31.55489
H         98.60270       55.66427       29.61774
H         97.21438       54.59716       29.24775
N         99.19440       53.60980       32.89467
C        100.28095       53.46952       33.87218
C        101.70582       53.57065       33.31068
O        102.66345       53.42905       34.05648
C        100.04469       52.19770       34.67712
C        100.17612       50.91608       33.84080
C         99.82230       49.67317       34.66218
C         98.32270       49.66202       35.05690
N         97.99132       48.56989       35.96402
H         98.58529       52.80353       32.69379
H        100.17697       54.29130       34.60144
H         99.01766       52.30873       35.07147
H        100.73180       52.16183       35.54921
H        101.22445       50.84845       33.48094
H         99.51154       50.94245       32.95745
H        100.47891       49.65700       35.55736
H        100.05548       48.77367       34.05185
H         97.69388       49.60447       34.13944
H         98.03715       50.58559       35.58866
H         97.00769       48.71866       36.28872
H         98.05719       47.64322       35.48770
H         98.61870       48.60435       36.80065
N        101.90317       53.84646       32.00619
C        103.18259       54.18233       31.39233
C        103.02467       55.36296       30.40886
O        103.95178       55.66758       29.67045
C        103.77763       52.93115       30.74646
C        102.83581       52.18585       29.88175
O        103.05789       52.14250       28.70511
O        101.81034       51.47860       30.39668
H        101.08483       53.85492       31.41627
H        103.93303       54.50216       32.14239
H        104.10693       52.21130       31.51742
H        104.67198       53.24229       30.16243
N        101.86373       56.07855       30.37247
C        101.58532       57.20521       29.51551
C        101.77227       56.95821       28.04060
O        102.07641       57.89890       27.32569
H        101.13259       55.86322       31.03397
H        102.19168       58.06593       29.83397
H        100.51009       57.47520       29.67608
N        101.63876       55.72073       27.50994
C        101.68319       55.44711       26.09347
C        100.41494       54.60571       25.75847
O        100.33732       53.45996       26.57867
C        103.09327       54.87433       25.85095
C        103.46121       54.51067       24.44785
N        104.49204       55.11720       23.82716
O        102.87949       53.61159       23.88389
H        101.57517       54.92158       28.12949
H        101.58975       56.38028       25.50590
H        103.26276       53.99037       26.49172
H        103.80299       55.66374       26.19720
H        105.00716       55.88043       24.28578
H        104.78833       54.79169       22.89600
N        100.19473       54.38839       24.31472
C         98.87399       53.85767       23.90543
C         99.00501       52.40488       23.53163
O         98.02011       51.77514       23.17143
H        100.44849       55.23422       23.75526
H         98.53274       54.37962       22.97844
H         98.09288       53.99295       24.68809
N        100.22960       51.82053       23.55235
C        100.48855       50.44791       23.21466
C        100.08881       49.53020       24.33209
O        100.27332       49.83724       25.50136
C        101.99313       50.25169       22.84625
C        102.25741       50.56588       21.39819
C        101.65418       49.79830       20.38573
C        103.09542       51.63561       21.04651
C        101.83253       50.14405       19.04280
C        103.26970       51.97891       19.70853
C        102.62720       51.24729       18.70329
O        102.77412       51.60321       17.41318
H        101.03423       52.38193       23.79573
H         99.85991       50.17088       22.34747
H        102.35193       49.22934       23.07264
H        102.60590       50.92603       23.44345
H        101.03455       48.94498       20.63905
H        103.60069       52.21486       21.80653
H        101.34064       49.56378       18.27094
H        103.89373       52.82473       19.45108
H        103.31486       52.36910       17.16902
N         99.59907       48.31112       23.99133
C         99.27466       47.25117       24.92117
C        100.50791       46.70115       25.62610
O        101.52629       47.35122       25.75053
C         98.04379       47.60395       25.82416
C         97.97647       46.78382       27.14055
C         96.74578       47.42196       25.00873
C         96.73807       47.02513       28.00390
H         99.48750       48.10324       22.98932
H         98.96808       46.40166       24.26953
H         98.14246       48.66711       26.12237
H         98.86601       47.04689       27.75296
H         97.99244       45.70006       26.91604
H         95.94388       48.03243       25.46633
H         96.85769       47.71572       23.94184
H         96.42063       46.35765       25.02186
H         96.87063       46.47371       28.95935
H         96.58749       48.10062       28.22974
H         95.83280       46.62382       27.50271
N        100.48057       45.40136       25.97841
C        101.58256       44.66142       26.58785
C        101.55499       43.16749       26.24552
O        102.56475       42.51549       26.47696
C        101.55089       44.81760       28.13297
O        100.26434       44.56640       28.63863
H         99.63154       44.92586       25.70557
H        102.55956       45.04902       26.22338
H        101.85834       45.84815       28.41177
H        102.26823       44.10353       28.59892
H        100.27682       44.82510       29.59997
N        100.40528       42.52874       25.83893
C        100.21379       41.09591       25.87262
C        100.59719       40.57970       27.24965
O        101.57817       39.85844       27.35192
C        100.94206       40.39962       24.72429
H         99.55190       43.03445       25.62875
H         99.13461       40.90632       25.69527
H        100.70446       40.91830       23.77195
H        102.04151       40.37019       24.86739
H        100.55385       39.36002       24.65636
N         99.95155       40.96827       28.39101
C         98.68967       41.71414       28.44246
C         97.53926       40.80542       27.99920
O         97.76863       39.60916       27.87648
C         98.48846       42.19110       29.89556
H        100.39264       40.70103       29.28282
H         98.76817       42.60943       27.79822
H         99.47197       42.53316       30.28499
H         97.80846       43.05869       29.97379
H         98.12650       41.37295       30.55949
N         96.26379       41.23527       27.77380
C         95.78388       42.60473       27.89790
C         95.01546       42.96077       26.63412
O         95.37466       43.90771       25.94670
C         94.86805       42.65920       29.13955
C         94.26629       44.03794       29.42200
C         93.27531       43.94026       30.55291
O         92.13601       43.55702       30.33329
O         93.66029       44.18805       31.81904
H         95.56991       40.51457       27.51490
H         96.61490       43.32329       28.04577
H         95.47271       42.35051       30.02104
H         94.04110       41.92798       29.03053
H         93.73501       44.43498       28.53171
H         95.08716       44.74251       29.67073
N         93.91186       42.22914       26.29724
C         93.09864       42.46160       25.12624
H         92.16542       42.97823       25.43246
H         93.62714       43.03446       24.33746
H         92.80332       41.47339       24.70926
H         93.60607       41.47532       26.92435
Ca       100.28083       51.54296       27.87697
O         98.09982       51.42502       26.55491
H         97.72682       51.36967       25.64812
H         97.66953       52.21398       26.96572
O        102.42460       49.14927       28.03688
H        101.97641       48.99366       27.17873
H        103.34492       49.37235       27.75820
O        102.50214       51.38688       25.89281
H        103.22782       51.49811       25.25033
H        102.98909       51.73636       26.64634
O         99.26140       49.36544       29.39010
H         98.42410       48.86341       29.54324
H         99.90476       48.98262       30.03678

Ca 1.70



