%chk=loop2.cluster38.chk
%nprocshared=48
%mem=10GB
%nosave
#b3lyp/svp scf=(tight,noincore) Test 
#IOP(5/87=12) Density=Current Pop=(MK,readradii) iop(6/33=2) iop(6/42=6)

loop2.cluster38 

   -2  1 
C         50.28925       15.57678       19.19380
C         49.63305       14.26647       18.89210
O         49.30820       13.53472       19.80895
H         51.29000       15.61001       18.71853
H         49.66124       16.40339       18.79828
H         50.40323       15.71693       20.29084
N         49.37902       13.89762       17.61133
C         48.65104       12.67254       17.29605
C         49.40007       11.38319       17.68540
O         48.78411       10.33082       17.69990
C         48.32794       12.66105       15.79518
C         47.45981       11.50777       15.38853
O         46.22436       11.37509       15.90738
O         47.86939       10.69037       14.58050
H         49.64942       14.54437       16.85214
H         47.69447       12.72642       17.85985
H         49.28936       12.63461       15.23618
H         47.79515       13.60109       15.53307
N         50.73195       11.40018       17.99077
C         51.52702       10.21314       18.32657
C         50.97260        9.40394       19.49881
O         50.93538        8.18019       19.43238
C         51.80845        9.36247       17.07931
H         51.23480       12.29562       17.95580
H         52.51948       10.58746       18.65547
H         52.48671        8.51873       17.33567
H         50.87371        8.95556       16.64227
H         52.32371        9.98325       16.31457
N         50.55330       10.03863       20.62967
C         50.11898        9.36949       21.85392
C         48.90998        8.45197       21.67425
O         48.61313        7.69365       22.58776
C         51.25049        8.58067       22.55546
C         52.63763        9.18523       22.54832
O         53.55417        8.50169       22.12520
O         52.93689       10.42305       22.99734
H         50.54619       11.06778       20.63275
H         49.82519       10.16195       22.57206
H         51.34307        7.58088       22.07405
H         50.93131        8.39771       23.60751
N         48.14283        8.48366       20.54343
C         46.99856        7.60545       20.36199
C         46.02797        7.72525       21.50768
O         45.99570        8.75510       22.16293
H         48.35084        9.15753       19.80114
H         47.34999        6.55439       20.28838
H         46.47624        7.85515       19.41073
N         45.21524        6.67637       21.82038
C         44.25437        6.70825       22.91860
C         43.24684        7.83578       22.74097
O         42.69601        8.32728       23.71725
C         44.98777        6.63763       24.28164
C         45.66600        5.28617       24.39999
N         47.01220        5.17583       24.47799
O         44.98044        4.27359       24.40546
H         45.26947        5.81978       21.25121
H         43.63547        5.78891       22.85480
H         44.26904        6.72254       25.12551
H         45.72246        7.46663       24.37638
H         47.61473        6.00942       24.46398
H         47.45011        4.24285       24.53352
N         42.88198        8.21843       21.48197
C         41.85735        9.20524       21.19658
C         42.40464       10.60441       21.09222
O         41.73370       11.45875       20.53631
H         43.33535        7.76790       20.67203
H         40.99245        9.14146       21.88804
H         41.47771        8.96266       20.17978
N         43.63849       10.90091       21.58051
C         44.27055       12.18563       21.38577
C         44.59353       12.79758       22.71551
O         45.08631       12.11412       23.60070
C         45.58737       12.02128       20.60719
C         45.38014       11.30023       19.27884
O         46.10300       13.30249       20.35254
H         44.16666       10.19336       22.08995
H         43.63044       12.87421       20.79323
H         46.30233       11.41918       21.22250
H         47.08334       13.23344       20.41962
H         44.67133       11.86820       18.64040
H         46.34974       11.20226       18.75732
H         44.99305       10.27484       19.44821
N         44.49558       14.14547       22.84570
C         45.01140       14.85758       24.00750
C         46.46462       14.49131       24.23879
O         47.10259       13.96318       23.33876
C         44.81912       16.38886       23.76867
C         45.09956       17.24166       25.02436
C         45.66349       16.88298       22.56382
C         44.66935       18.69729       24.85105
H         44.09738       14.67789       22.06200
H         44.42393       14.51317       24.88704
H         43.74074       16.51278       23.52556
H         46.17818       17.22361       25.28801
H         44.51061       16.82644       25.86673
H         45.36956       17.90822       22.26785
H         46.74677       16.87492       22.81031
H         45.52550       16.25754       21.65964
H         43.59018       18.74324       24.59154
H         44.83369       19.24749       25.79976
H         45.25935       19.20293       24.06077
N         47.04949       14.74107       25.43742
C         48.43537       14.44437       25.71102
C         48.56750       13.74710       27.05648
O         49.27706       14.21355       27.93420
C         49.21199       15.76062       25.57338
C         50.69070       15.61742       25.72217
O         51.21002       14.51409       25.78053
O         51.45269       16.72377       25.79266
H         46.50622       15.21114       26.16265
H         48.82846       13.72009       24.97975
H         48.83064       16.46814       26.32891
H         49.02153       16.20145       24.56718
N         47.93236       12.55898       27.23470
C         48.16974       11.69230       28.38597
C         47.36160       11.97123       29.64917
O         47.80222       11.47803       30.68475
C         47.95965       10.21723       27.97249
C         46.51361        9.91352       27.63879
C         45.58912        9.63483       28.66260
C         46.07579        9.92408       26.30411
C         44.25159        9.37539       28.35290
C         44.73485        9.68226       26.00285
C         43.82342        9.40384       27.02404
H         47.42151       12.18220       26.42838
H         49.25112       11.77897       28.64337
H         48.30757        9.52045       28.76671
H         48.60174       10.02633       27.08580
H         45.90513        9.61523       29.69800
H         46.76756       10.14097       25.49984
H         43.54616        9.15795       29.14450
H         44.40551        9.71269       24.97528
H         42.78582        9.21047       26.78584
N         46.15037       12.62555       29.70305
C         45.43784       13.26356       28.60036
C         45.71307       14.76197       28.57696
O         44.93909       15.49026       27.96515
C         43.95288       13.09306       29.00610
C         43.93818       12.60615       30.45632
C         45.38045       12.66174       30.92374
H         45.55732       12.78931       27.60822
H         43.32123       13.99744       28.85992
H         43.47985       12.30474       28.37970
H         43.22656       13.13947       31.12419
H         43.64365       11.53573       30.41719
H         45.58020       13.62893       31.41159
H         45.59480       11.84424       31.64896
N         46.75667       15.31117       29.25341
C         46.85641       16.74038       29.50604
C         48.01894       17.39580       28.79758
O         49.14919       16.93891       28.90634
C         46.92132       16.94396       31.02251
C         45.53027       16.72053       31.63220
C         45.57045       16.89607       33.11511
O         44.96485       17.81721       33.63783
O         46.27226       16.03650       33.87755
H         47.45767       14.69666       29.69624
H         45.95122       17.27555       29.14718
H         47.21554       17.98948       31.25003
H         47.68437       16.26085       31.46512
H         45.12497       15.72032       31.39462
H         44.83481       17.46542       31.18638
N         47.78734       18.53528       28.07696
C         48.80181       19.25374       27.33951
H         49.78394       18.74134       27.35213
H         48.46343       19.35505       26.28615
H         48.91416       20.27318       27.76751
H         46.83578       18.93452       28.06367
Ca        52.09867       12.40425       23.65736
O         50.27553       14.00835       22.60751
H         49.39544       14.12426       23.01678
H         50.11283       13.30607       21.93790
O         54.07626       14.76777       25.36865
H         53.38933       15.41469       25.08404
H         54.91705       15.27920       25.28359
O         53.11727       14.94315       22.35096
H         52.64068       15.80835       22.28828
H         53.96117       15.08153       21.85274
O         52.59857       12.42270       20.86666
H         52.71297       12.85657       19.98707
H         53.09577       11.57095       20.79098
O         53.15797       11.86299       26.09076
H         52.63687       12.43654       26.70614
H         53.24635       10.99649       26.55780
O         50.06207       11.44861       25.02643
H         49.18737       11.25016       24.61111
H         50.49072       10.56834       25.16948
O         54.94946       12.57768       23.56140
H         55.44693       12.05944       22.88155
H         55.62647       13.16888       23.97389

Ca 1.70



