%chk=loop3.cluster189.chk
%nprocshared=48
%mem=10GB
%nosave
#b3lyp/svp scf=(tight,noincore) Test 
#IOP(5/87=12) Density=Current Pop=(MK,readradii) iop(6/33=2) iop(6/42=6)

loop3.cluster189 

   0  1 
C        112.96767       77.51750       34.19341
C        113.87909       76.33119       34.05470
O        114.31718       75.78527       35.05638
H        112.04243       77.21354       34.72461
H        113.47783       78.32171       34.76119
H        112.67744       77.92413       33.19947
N        114.18074       75.85585       32.81980
C        115.04185       74.70075       32.59118
C        116.49082       75.13543       32.75291
O        116.91502       76.07350       32.09110
C        114.69594       74.16215       31.19573
C        115.43505       72.98665       30.65849
O        116.33477       72.28120       31.35819
O        115.19970       72.64526       29.51170
H        113.75544       76.32449       32.00300
H        114.79093       73.88899       33.30998
H        114.81098       74.98102       30.45958
H        113.62358       73.85690       31.20886
N        117.28901       74.52348       33.67456
C        118.63133       75.00242       34.01622
C        119.61020       75.02491       32.84254
O        120.49077       75.87393       32.82524
C        119.18949       74.22944       35.23566
C        119.50988       72.74751       34.95369
C        119.89638       71.96064       36.22137
C        121.17606       72.46164       36.91327
N        121.52238       71.59767       38.04390
H        116.89074       73.74138       34.21421
H        118.50654       76.05660       34.35186
H        118.42376       74.28295       36.04224
H        120.10464       74.74079       35.59688
H        120.32817       72.67382       34.20558
H        118.61351       72.24780       34.52801
H        120.05536       70.90244       35.92019
H        119.05301       71.98922       36.94611
H        121.03281       73.49924       37.28562
H        122.01699       72.46072       36.18563
H        121.68224       70.61846       37.71204
H        122.40077       71.94636       38.49143
H        120.75460       71.60525       38.75435
N        119.47746       74.15161       31.80567
C        120.30860       74.18804       30.59654
C        119.48285       74.54844       29.36137
O        120.06585       74.72682       28.29969
C        121.02008       72.83737       30.36019
C        120.06636       71.69334       30.43373
O        119.69027       71.13960       29.41812
O        119.63948       71.26322       31.63274
H        118.72045       73.45847       31.85886
H        121.09422       74.97161       30.67801
H        121.81559       72.65030       31.10999
H        121.50988       72.84711       29.35967
N        118.12637       74.68854       29.42033
C        117.32882       75.08473       28.27486
C        117.29819       74.06649       27.15692
O        116.88133       74.42192       26.06393
H        117.63515       74.54254       30.30401
H        117.68634       76.06902       27.90759
H        116.27342       75.21737       28.59426
N        117.63394       72.76051       27.37686
C        117.46402       71.71639       26.37460
C        116.44182       70.69587       26.93637
O        117.06351       69.82783       27.85881
C        118.84900       71.12505       26.00637
C        118.83881       69.93514       25.07080
N        118.20928       69.98348       23.87394
O        119.43302       68.91713       25.39570
H        117.95318       72.47831       28.31102
H        117.03540       72.15445       25.44850
H        119.38466       70.82333       26.93034
H        119.44037       71.93726       25.53206
H        117.68958       70.82202       23.58214
H        118.23176       69.16572       23.24513
N        115.75700       69.94166       25.85988
C        114.51117       69.30820       26.33912
C        114.76205       67.99311       27.05808
O        113.83485       67.42141       27.61081
H        115.47829       70.61285       25.10672
H        113.85017       69.08591       25.47079
H        113.96114       70.01941       26.99624
N        116.00733       67.45204       27.06293
C        116.40756       66.24207       27.77090
C        116.25750       66.36542       29.28639
O        116.59743       67.39299       29.84701
C        117.91052       66.04154       27.44742
C        118.60415       64.88977       28.12505
C        119.60177       65.15249       29.07704
C        118.30786       63.56150       27.78690
C        120.28861       64.10835       29.69061
C        119.01190       62.51246       28.39277
C        120.00352       62.78675       29.34924
O        120.69401       61.78980       29.93586
H        116.73252       67.92419       26.50650
H        115.83014       65.37023       27.39694
H        118.43078       66.98271       27.73878
H        118.04043       65.92815       26.34875
H        119.84618       66.16949       29.34640
H        117.55537       63.34210       27.04008
H        121.05241       64.32919       30.42468
H        118.79545       61.48981       28.11346
H        120.54000       60.86261       29.70929
N        115.89138       65.26223       30.00975
C        116.02302       65.11412       31.46581
C        117.48209       65.12702       31.87899
O        118.21645       66.02859       31.50286
C        115.23682       66.11845       32.34751
C        115.20649       65.62689       33.83352
C        113.79169       66.25511       31.85313
C        115.08797       66.78278       34.81920
H        115.59253       64.42657       29.48759
H        115.60660       64.10949       31.70967
H        115.74912       67.10520       32.29607
H        116.12769       65.11599       34.15602
H        114.38774       64.88258       33.96239
H        113.76984       66.73661       30.85854
H        113.32704       65.24797       31.76495
H        113.18287       66.86057       32.55504
H        116.06027       67.32519       34.84452
H        114.27999       67.48348       34.54520
H        114.89310       66.39538       35.83618
N        117.95818       64.19499       32.73813
C        119.30477       64.25187       33.28819
C        119.85604       62.88194       33.70857
O        121.03206       62.80329       34.01808
C        119.36246       65.30218       34.41459
O        118.44294       64.98160       35.41911
H        117.25986       63.56141       33.14420
H        119.99559       64.59878       32.48895
H        119.09561       66.29755       33.99195
H        120.39108       65.35889       34.83387
H        118.50835       65.70191       36.09872
N        119.06884       61.75531       33.71377
C        119.55588       60.40440       33.95377
C        120.31091       60.21381       35.26784
O        121.43830       59.73630       35.22788
C        120.35722       59.96152       32.72678
H        118.07464       61.81038       33.50196
H        118.67058       59.73056       34.00014
H        120.70409       58.91532       32.84397
H        119.69698       60.01059       31.83415
H        121.23143       60.62536       32.55870
N        119.78899       60.52681       36.49081
C        118.52155       61.21507       36.70287
C        117.62875       60.45521       37.67781
O        118.06939       59.45114       38.21700
C        118.90930       62.60129       37.23605
H        120.37382       60.34908       37.32247
H        117.95658       61.30908       35.76499
H        119.43578       62.50946       38.20842
H        119.60905       63.07162       36.51690
H        118.07320       63.30077       37.36113
N        116.35840       60.86007       37.99078
C        115.68328       62.02631       37.43013
C        114.33759       61.66278       36.82546
O        114.06548       62.06440       35.70155
C        115.54933       63.08674       38.53606
C        114.98877       64.40272       37.98867
C        115.12672       65.50288       38.99682
O        116.23097       65.95388       39.26046
O        114.03705       66.00562       39.60484
H        115.85864       60.32159       38.71510
H        116.26888       62.48694       36.61317
H        116.56271       63.27771       38.94688
H        114.91719       62.71950       39.37318
H        113.92123       64.25251       37.72147
H        115.54713       64.70311       37.07760
N        113.44068       60.90237       37.51298
C        112.13507       60.59177       36.97315
H        111.52061       61.51614       36.93450
H        112.22413       60.15858       35.95386
H        111.62649       59.85320       37.62810
H        113.69082       60.51686       38.43311
Ca       116.94684       70.58950       30.01955
O        114.21178       69.60856       30.12625
H        113.97198       68.74096       29.72153
H        113.35871       69.95268       30.48901
O        119.42693       68.65565       30.17978
H        120.27467       68.27119       30.50965
H        118.72946       68.10166       30.59244
O        118.02885       69.02756       33.07876
H        118.87904       69.30772       32.66861
H        118.28510       68.79305       34.00367
O        115.09032       70.18811       32.96767
H        114.86246       71.08879       33.30870
H        115.76348       69.85174       33.60820

Ca 1.70



