%chk=loop1.cluster65.chk
%nprocshared=48
%mem=10GB
%nosave
#b3lyp/svp scf=(tight,noincore) Test 
#IOP(5/87=12) Density=Current Pop=(MK,readradii) iop(6/33=2) iop(6/42=6)

loop1.cluster65 

   0  1 
C         42.90732       55.27489        9.45385
C         43.32051       55.21765        8.01654
O         42.45927       55.28055        7.15064
H         41.83656       54.99885        9.55970
H         43.53105       54.60116       10.07535
H         43.03027       56.32007        9.81041
N         44.64428       55.17340        7.68274
C         45.11173       55.28170        6.30655
C         44.62284       56.61023        5.73278
O         45.00209       57.64076        6.26015
C         44.72628       54.05411        5.43444
C         45.36817       52.75033        5.81169
O         46.26283       52.67720        6.81458
O         45.09577       51.74570        5.17275
H         45.34818       55.12130        8.43564
H         46.22644       55.32008        6.30112
H         45.05595       54.25697        4.38956
H         43.62834       53.90850        5.44287
N         43.75931       56.65458        4.67365
C         43.39806       57.84548        3.91931
C         44.59983       58.28640        3.09875
O         44.64299       57.97874        1.91493
C         42.72698       58.96168        4.74863
C         42.15774       60.01398        3.79112
C         41.41369       61.14115        4.50067
C         40.96930       62.18188        3.45887
N         39.89173       63.02593        3.96861
H         43.35868       55.77836        4.32033
H         42.63102       57.48911        3.19145
H         43.44128       59.43867        5.45094
H         41.90023       58.52691        5.35148
H         41.42724       59.51084        3.11573
H         42.97826       60.43970        3.17652
H         42.05953       61.64203        5.25806
H         40.53636       60.69821        5.01837
H         40.59951       61.68416        2.53427
H         41.85542       62.79650        3.17777
H         40.08440       63.34482        4.94445
H         39.78102       63.85476        3.34124
H         39.00043       62.47643        3.94847
N         45.62505       58.98792        3.66786
C         46.89271       59.24369        2.98671
C         48.09622       58.80997        3.85952
O         49.21570       58.81412        3.36792
C         46.97073       60.73606        2.62370
C         47.97062       61.09117        1.55252
O         48.54596       60.22752        0.91497
O         48.16910       62.38334        1.23697
H         45.48915       59.37032        4.60787
H         46.90608       58.64907        2.04366
H         47.18258       61.30429        3.55236
H         45.98659       61.06333        2.22541
N         47.93011       58.40324        5.16336
C         48.96641       57.82725        6.00922
C         49.17548       56.35100        5.73263
O         49.47616       55.61510        6.65715
H         47.02254       58.48761        5.60576
H         48.55896       57.84366        7.04726
H         49.89843       58.42786        6.04802
N         48.91738       55.83790        4.50079
C         49.02048       54.43234        4.13945
C         50.47081       53.98158        4.12395
O         51.36465       54.81301        4.05887
C         48.29982       54.15152        2.79489
C         48.79784       55.01927        1.66957
O         48.44823       56.31944        1.61374
O         49.56043       54.56106        0.84094
H         48.60060       56.47776        3.79589
H         48.48646       53.84328        4.91594
H         47.20832       54.33480        2.91020
H         48.43719       53.08177        2.53681
N         50.77453       52.67616        4.37303
C         52.13146       52.21898        4.65132
C         52.72264       52.79389        5.94266
O         53.81498       52.38570        6.30878
H         50.00962       51.98643        4.42789
H         52.79977       52.44006        3.79091
H         52.09973       51.11450        4.78118
N         52.06350       53.73988        6.68188
C         52.54424       54.28859        7.93893
C         52.88892       55.75829        7.75666
O         52.75882       56.27875        6.65582
C         51.42532       54.15747        9.01960
C         50.64276       52.84272        8.94096
O         51.95257       54.32218       10.31017
H         51.16692       54.08996        6.37034
H         53.45167       53.73872        8.26738
H         50.66567       54.95710        8.86315
H         52.56697       53.55996       10.47583
H         50.02950       52.82025        8.01273
H         51.33387       51.97710        8.94545
H         49.94356       52.77485        9.80011
N         53.34098       56.48927        8.81280
C         53.62655       57.91549        8.71831
C         55.11294       58.19000        8.64336
O         55.48748       59.34139        8.45838
C         52.92630       58.72422        9.84932
C         53.59584       58.66856       11.25923
C         51.41959       58.41693        9.89271
C         53.66205       57.34052       12.02448
H         53.49875       56.01053        9.69938
H         53.21679       58.30140        7.75872
H         53.01626       59.79024        9.53929
H         53.04972       59.38108       11.90332
H         54.63703       59.03662       11.16586
H         51.22166       57.41362       10.32298
H         50.88583       59.18176       10.49621
H         50.99681       58.44324        8.86421
H         54.30733       56.59944       11.52054
H         54.14787       57.52041       13.00876
H         52.65148       56.92519       12.21692
N         56.02432       57.18346        8.77178
C         57.45462       57.39591        8.66046
C         58.09978       57.27869       10.01913
O         57.96378       56.26527       10.69588
C         58.08810       56.40361        7.65953
C         57.77363       56.79302        6.21397
O         59.48835       56.41020        7.80629
H         55.70540       56.22588        8.97965
H         57.67603       58.41742        8.28053
H         57.68085       55.38560        7.87583
H         59.78167       55.46862        7.92332
H         58.19221       56.03120        5.52312
H         56.68236       56.88477        6.04281
H         58.25800       57.76843        5.97951
N         58.90457       58.29260       10.43014
C         59.70970       58.27513       11.63644
C         58.83323       58.32939       12.86731
O         58.91164       57.43782       13.69564
C         60.73161       59.43954       11.56871
C         61.72695       59.41641       12.72046
O         60.09755       60.69581       11.54970
H         59.01027       59.09394        9.79149
H         60.30309       57.33117       11.64802
H         61.32907       59.29861       10.63505
H         59.87070       60.91109       10.60810
H         61.21187       59.62399       13.68132
H         62.23434       58.43006       12.77392
H         62.49382       60.20066       12.54568
N         57.92868       59.33950       13.01118
C         56.97786       59.34590       14.11383
C         55.71817       60.12241       13.77774
O         55.62547       60.77077       12.74983
C         57.62870       59.83928       15.42936
C         58.13378       61.29519       15.37528
C         58.67838       61.76525       16.73582
C         59.97255       61.04432       17.14816
N         60.42522       61.50213       18.46030
H         57.84200       60.03735       12.26440
H         56.62175       58.30297       14.26220
H         58.45960       59.15572       15.68255
H         56.88798       59.77014       16.25545
H         57.28292       61.95924       15.11758
H         58.91317       61.41525       14.59203
H         57.89476       61.62093       17.51249
H         58.89696       62.85399       16.67195
H         60.75823       61.25333       16.38839
H         59.82151       59.94663       17.19962
H         61.34226       61.05143       18.68180
H         60.54511       62.54071       18.46406
H         59.72803       61.22403       19.18932
N         54.69092       60.06246       14.66251
C         53.41602       60.74274       14.49187
C         52.24975       59.79620       14.79003
O         51.43931       59.61934       13.89026
C         53.38564       62.07601       15.26939
C         54.18988       63.15099       14.50039
C         54.10938       64.50717       15.13289
O         55.23728       65.15809       15.47520
O         53.02667       65.04984       15.28662
H         54.83951       59.49799       15.49780
H         53.27921       61.03919       13.42867
H         53.76052       61.95757       16.30724
H         52.33476       62.43214       15.31123
H         53.76989       63.24961       13.47410
H         55.25261       62.85251       14.40770
N         52.05299       59.11911       15.96579
C         52.87590       59.17043       17.15996
H         53.69655       59.89820       17.13469
H         52.24279       59.45579       18.02171
H         53.29068       58.15519       17.35312
H         51.24028       58.48521       16.01130
Ca        49.78754       57.85980        0.68923
O         48.33057       57.13226       -1.40882
H         48.20488       57.79952       -2.12723
H         47.43823       57.01914       -0.99610
O         51.24808       56.22475       -1.09145
H         52.11172       55.77171       -0.93027
H         50.58478       55.49257       -1.12197
O         51.91472       57.04722        2.14698
H         52.13976       57.63060        2.91344
H         52.33398       56.17698        2.34969
O         51.12275       59.20039       -1.45655
H         52.01810       59.61645       -1.38818
H         50.70834       59.61502       -2.25344
O         51.63193       60.03882        1.44690
H         51.48940       60.96166        1.11899
H         52.44406       60.09214        2.00975

Ca 1.70



