%chk=loop3.cluster28.chk
%nprocshared=48
%mem=10GB
%nosave
#b3lyp/svp scf=(tight,noincore) Test 
#IOP(5/87=12) Density=Current Pop=(MK,readradii) iop(6/33=2) iop(6/42=6)

loop3.cluster28 

   0  1 
C         62.66651       48.52397       41.32443
C         61.87904       47.93767       42.45387
O         62.22944       46.87768       42.94986
H         63.58624       47.93386       41.13168
H         62.04355       48.53136       40.40303
H         62.94416       49.56678       41.58092
N         60.76862       48.58578       42.89640
C         59.89030       48.07725       43.94029
C         58.76697       47.30195       43.26709
O         57.60954       47.69466       43.30599
C         59.43483       49.26933       44.79453
C         58.46715       48.91852       45.87497
O         57.35395       49.40097       45.82962
O         58.79061       48.10220       46.89697
H         60.51023       49.47267       42.43713
H         60.42759       47.36807       44.60689
H         58.93758       50.00208       44.12162
H         60.31253       49.76347       45.25435
N         59.09096       46.16835       42.59440
C         58.15032       45.28389       41.91687
C         57.30417       44.51643       42.92914
O         56.16877       44.17290       42.63238
C         59.01209       44.36063       41.03782
C         58.27140       43.33633       40.19615
C         59.30999       42.56971       39.35919
C         58.68105       41.61717       38.34209
N         57.96879       42.34915       37.29174
H         60.08456       45.90597       42.57457
H         57.48913       45.88201       41.24936
H         59.75780       43.83180       41.67066
H         59.56379       45.03319       40.33666
H         57.55044       43.87881       39.55366
H         57.72431       42.62135       40.84792
H         59.95972       41.98790       40.05153
H         59.96446       43.27903       38.80354
H         57.99854       40.90190       38.85114
H         59.50620       41.03825       37.87200
H         57.10844       42.80366       37.67027
H         58.59433       43.07491       36.86978
H         57.68473       41.67951       36.54258
N         57.81340       44.23307       44.16198
C         57.02378       43.66197       45.25620
C         55.97362       44.65260       45.76956
O         54.97378       44.22695       46.33327
C         57.92509       43.17046       46.41533
C         58.84229       44.21549       46.99948
O         59.77832       44.64581       46.34783
O         58.68728       44.61483       48.27361
H         58.79264       44.46928       44.32599
H         56.49549       42.76177       44.86632
H         58.56154       42.33390       46.05381
H         57.27210       42.77397       47.22130
N         56.12247       45.99023       45.56190
C         55.08866       46.97570       45.83152
C         54.80691       47.23870       47.29540
O         53.66876       47.10257       47.71520
H         56.98244       46.32034       45.11399
H         54.16173       46.68843       45.29222
H         55.41498       47.94375       45.40034
N         55.79608       47.70396       48.10931
C         55.58258       48.16693       49.47837
C         56.05234       49.62644       49.64599
O         56.13686       50.10495       50.76901
C         56.26109       47.17879       50.45139
C         57.76025       47.28436       50.59376
N         58.32714       47.16302       51.81793
O         58.46817       47.43775       49.61196
H         56.73915       47.75664       47.73586
H         54.50091       48.12196       49.72958
H         56.00189       46.14876       50.12345
H         55.81336       47.31047       51.45984
H         57.74518       46.97591       52.64856
H         59.34943       47.21644       51.93088
N         56.31497       50.40536       48.54996
C         56.72898       51.80076       48.60621
C         58.20343       52.04381       48.87764
O         58.58356       53.20565       48.93076
H         56.09296       50.03345       47.62427
H         56.08958       52.35492       49.32497
H         56.55894       52.24904       47.60167
N         59.10342       51.02873       49.03410
C         60.52664       51.27908       49.28303
C         61.40743       50.56436       48.28683
O         61.04186       49.50176       47.82181
C         60.88317       50.78567       50.68940
C         60.15176       51.57611       51.73702
C         60.49989       52.91564       51.97649
C         59.12513       50.98248       52.48502
C         59.84074       53.64585       52.96719
C         58.45893       51.71791       53.46756
C         58.82216       53.05024       53.71832
O         58.20260       53.76175       54.68080
H         58.77550       50.05194       49.00397
H         60.77159       52.36142       49.22439
H         61.97499       50.88408       50.88353
H         60.62150       49.70681       50.75856
H         61.29325       53.38538       51.40717
H         58.83740       49.95532       52.30060
H         60.12674       54.67287       53.15604
H         57.66547       51.25110       54.03637
H         57.51228       53.37159       55.23538
N         62.64738       51.04623       47.99949
C         63.61588       50.34106       47.16653
C         64.81596       50.00594       48.01492
O         65.35757       50.88956       48.67166
C         64.03696       51.19821       45.94135
C         62.81275       51.41015       45.02166
C         65.19069       50.50204       45.17444
C         63.07494       52.37788       43.86894
H         62.93788       51.94109       48.42553
H         63.19642       49.39007       46.76297
H         64.40049       52.18740       46.29962
H         61.97757       51.84021       45.61494
H         62.48476       50.43044       44.61134
H         64.89859       49.47143       44.87661
H         65.50214       51.06113       44.27330
H         66.09889       50.43978       45.80988
H         63.86646       52.00932       43.18821
H         62.14738       52.48882       43.27045
H         63.36523       53.37258       44.26896
N         65.34031       48.75197       47.98150
C         66.53994       48.37843       48.70671
C         67.69318       48.13480       47.75699
O         67.51748       48.20887       46.54815
C         66.23893       47.15637       49.58567
O         65.79243       46.08174       48.79943
H         64.89935       48.04702       47.37051
H         66.87254       49.20703       49.36854
H         65.46129       47.45925       50.32533
H         67.13756       46.83667       50.15101
H         64.96470       45.72989       49.22133
N         68.93395       47.89746       48.25688
C         70.12619       47.69428       47.44105
C         70.00108       46.44451       46.59400
O         70.30531       46.47639       45.41237
C         71.34380       47.56216       48.36141
H         69.03874       47.88677       49.28480
H         70.29841       48.58381       46.79232
H         72.28101       47.52307       47.76819
H         71.39487       48.44453       49.03564
H         71.26785       46.64702       48.98748
N         69.52757       45.30147       47.16072
C         69.31994       44.06357       46.41729
C         68.36125       44.28096       45.25202
O         68.58981       43.75145       44.17257
C         68.78716       42.99397       47.38496
H         69.26952       45.32501       48.15853
H         70.29345       43.69439       46.03011
H         68.71963       42.00416       46.88814
H         69.49008       42.89577       48.24322
H         67.78971       43.27388       47.78825
N         67.26759       45.07412       45.40842
C         66.30098       45.34546       44.34372
C         66.84950       46.28441       43.27653
O         66.39350       46.22379       42.14345
C         65.03134       45.94775       44.96626
C         64.42604       44.92525       45.95474
C         63.24300       45.42501       46.69873
O         62.67273       44.69496       47.49383
O         62.75382       46.63995       46.44312
H         67.11195       45.49758       46.33616
H         65.99524       44.38863       43.86310
H         64.28863       46.19045       44.17779
H         65.29714       46.89575       45.48008
H         65.16458       44.62095       46.71681
H         64.11458       44.02637       45.38255
N         67.81505       47.19669       43.58122
C         68.35864       48.14286       42.62893
H         69.43606       47.92181       42.48106
H         67.84345       48.11046       41.64725
H         68.26488       49.17164       43.04000
H         68.18959       47.22530       44.53017
Ca        60.70877       47.03105       47.13112
O         60.73592       45.17748       50.34112
H         61.24353       44.33087       50.26959
H         60.05162       44.99726       51.03311
O         62.35206       47.78385       49.89857
H         62.78591       48.59450       50.26453
H         62.77253       47.03740       50.39287

Ca 1.70



