%chk=loop1.cluster73.chk
%nprocshared=48
%mem=10GB
%nosave
#b3lyp/svp scf=(tight,noincore) Test 
#IOP(5/87=12) Density=Current Pop=(MK,readradii) iop(6/33=2) iop(6/42=6)

loop1.cluster73 

   0  1 
C         67.46237       56.95844       44.87602
C         66.45948       56.29812       43.97772
O         65.45033       55.81741       44.47232
H         68.34907       57.30765       44.30600
H         67.00255       57.82942       45.38805
H         67.80138       56.22341       45.63528
N         66.67437       56.24771       42.62921
C         65.80139       55.56806       41.67472
C         64.32777       55.80122       41.96378
O         63.55833       54.85186       42.04067
C         66.17824       54.07395       41.63824
C         65.46710       53.24919       40.59340
O         65.66094       51.91792       40.56484
O         64.71755       53.76569       39.77842
H         67.52557       56.69117       42.25080
H         66.01343       56.00576       40.67225
H         65.96134       53.64670       42.63941
H         67.26901       53.98420       41.44551
N         63.87812       57.05941       42.18283
C         62.47477       57.34754       42.42616
C         61.94243       58.40845       41.48565
O         60.74841       58.66184       41.53412
C         62.25411       57.78171       43.88173
C         63.16093       58.95869       44.28411
C         62.68943       59.63987       45.56826
C         61.42949       60.48536       45.29699
N         61.00516       61.20303       46.49263
H         64.56377       57.82839       42.21184
H         61.84699       56.44427       42.25900
H         62.45202       56.93583       44.57679
H         61.17826       58.02567       43.98124
H         63.20652       59.73291       43.48771
H         64.18992       58.56114       44.42552
H         63.49425       60.33062       45.90003
H         62.52194       58.88636       46.36928
H         60.58369       59.86268       44.93998
H         61.66633       61.22404       44.49774
H         61.79729       61.76862       46.87414
H         60.22193       61.84613       46.23465
H         60.66875       60.52186       47.21063
N         62.75067       59.09578       40.62271
C         62.22092       60.12210       39.74817
C         61.69554       59.44228       38.50104
O         60.52290       59.58532       38.19993
C         63.29594       61.18654       39.42695
C         62.70795       62.47190       38.87914
O         63.43567       63.33657       38.42444
O         61.40526       62.75022       39.04983
H         63.75873       58.90439       40.57794
H         61.42184       60.66279       40.29595
H         64.05155       60.75697       38.73457
H         63.82333       61.47368       40.36345
N         62.51274       58.60664       37.78210
C         62.08782       57.83304       36.62080
C         62.11512       58.62359       35.32976
O         62.85779       58.26625       34.42613
H         63.45801       58.41916       38.14826
H         61.09221       57.37679       36.79110
H         62.80139       56.98892       36.49349
N         61.32426       59.71308       35.17442
C         61.25839       60.51614       33.95990
C         61.95193       61.81490       34.26622
O         61.35342       62.88459       34.26755
C         59.80617       60.61056       33.42619
C         58.78312       60.93395       34.47554
O         58.13774       61.96421       34.40738
O         58.57285       60.04326       35.47226
H         60.78238       60.02977       35.97725
H         61.85343       60.07250       33.13379
H         59.52177       59.62022       33.01271
H         59.77897       61.35009       32.59642
N         63.27423       61.74973       34.56315
C         64.07947       62.88485       34.94747
C         65.25882       62.43716       35.77820
O         65.43445       61.24573       36.02033
H         63.71905       60.81935       34.53026
H         63.48717       63.57741       35.58206
H         64.42270       63.42619       34.03696
N         66.11324       63.35947       36.27333
C         67.26458       63.00750       37.08820
C         68.52374       63.36963       36.37280
O         68.53749       64.32003       35.59528
C         67.24308       63.69238       38.48764
C         66.87735       65.18101       38.42793
O         66.38843       63.03837       39.38639
H         65.95301       64.35176       36.03416
H         67.32073       61.90734       37.26203
H         68.26409       63.59165       38.91636
H         65.61058       62.71523       38.87819
H         67.52405       65.72322       37.70764
H         65.81467       65.30496       38.12387
H         66.99702       65.63712       39.43131
N         69.66359       62.69042       36.66739
C         70.95554       63.05725       36.12177
C         71.67217       61.91165       35.42070
O         72.68440       62.15417       34.78595
C         71.81611       63.58512       37.30527
C         72.96399       64.50152       36.84591
C         72.36295       62.42919       38.17993
C         72.44339       65.82675       36.27741
H         69.60747       61.94284       37.37778
H         70.79067       63.84590       35.36575
H         71.16047       64.20293       37.96085
H         73.61506       63.99153       36.10770
H         73.58498       64.75566       37.72972
H         72.87222       62.83522       39.07691
H         71.55132       61.75710       38.52921
H         73.10187       61.81522       37.61972
H         71.84268       65.69627       35.35649
H         71.81562       66.33973       37.03867
H         73.30043       66.48003       36.02421
N         71.26495       60.62198       35.60212
C         72.07831       59.47846       35.20172
C         71.92333       58.33549       36.20040
O         71.03322       58.34367       37.03768
C         71.72921       58.99108       33.76664
C         70.21251       58.94530       33.54135
O         72.35010       59.75869       32.76542
H         70.45125       60.43772       36.19367
H         73.15632       59.74474       35.28237
H         72.13603       57.96542       33.64017
H         72.21575       60.71546       32.96096
H         69.98423       58.52668       32.54124
H         69.72218       58.32149       34.31855
H         69.78731       59.97218       33.59315
N         72.80601       57.30266       36.13810
C         72.76711       56.15298       37.03741
C         74.10862       55.92972       37.74375
O         74.15872       55.15420       38.69034
C         72.39228       54.94200       36.16685
C         72.09216       53.67039       36.95571
O         73.42931       54.70417       35.24769
H         73.50488       57.32106       35.38542
H         71.98756       56.31079       37.81661
H         71.45954       55.22789       35.62457
H         73.03677       54.20791       34.48562
H         71.77721       52.87972       36.24280
H         72.98526       53.30837       37.50151
H         71.26154       53.85267       37.66938
N         75.24606       56.54091       37.30133
C         76.55845       56.33648       37.87301
C         77.06706       57.67598       38.34481
O         76.94192       58.66677       37.63577
C         77.49368       55.74513       36.80236
C         78.88294       55.42957       37.37794
C         79.82329       54.88658       36.30108
C         81.14203       54.41332       36.92649
N         82.14802       54.16722       35.89594
H         75.21210       57.17378       36.49709
H         76.53177       55.61303       38.72109
H         77.57969       56.44807       35.94489
H         77.05330       54.79225       36.43224
H         78.77008       54.68815       38.19821
H         79.34622       56.35190       37.79350
H         80.01255       55.70511       35.57272
H         79.36156       54.02950       35.76229
H         80.95066       53.48062       37.50631
H         81.53670       55.18177       37.62667
H         81.79719       53.48016       35.19057
H         82.38145       55.07120       35.42294
H         83.01483       53.79369       36.34529
N         77.70499       57.76049       39.53114
C         78.21981       59.00690       40.06389
C         77.12551       59.99403       40.49362
O         77.31288       61.17139       40.22161
C         79.22260       58.72732       41.19759
C         80.45109       57.91777       40.70872
C         81.27691       58.66420       39.69157
O         81.83126       59.84948       40.01054
O         81.46145       58.19081       38.58087
H         77.87579       56.88656       40.05316
H         78.81756       59.51537       39.27296
H         78.70796       58.16474       42.00477
H         79.58622       59.68952       41.61966
H         80.13015       56.94451       40.27827
H         81.10286       57.69904       41.57810
N         75.96988       59.66926       41.16212
C         75.50957       58.34455       41.53463
H         74.53394       58.15466       41.03309
H         76.18512       57.52416       41.28160
H         75.34831       58.30342       42.63007
H         75.33325       60.44472       41.40576
Ca        57.64427       60.22953       37.52779
O         57.17296       58.43210       40.18506
H         57.53876       57.51271       40.20804
H         56.59100       58.48767       40.98369
O         56.17067       62.27224       36.75229
H         56.36190       62.50966       35.81642
H         55.39965       62.83608       36.99316
O         55.96411       61.46340       39.68811
H         56.53323       61.90177       40.36753
H         55.40042       62.19678       39.33807
O         58.66577       57.61187       37.59673
H         58.52923       57.42467       36.63456
H         58.57222       56.73677       38.04631
O         55.09869       59.03850       37.37480
H         55.16277       58.45364       36.57858
H         54.65002       58.48492       38.06126
O         58.92413       61.10766       40.50668
H         59.06093       60.18603       40.83234
H         59.18701       61.67827       41.27088
O         59.11069       62.60855       37.54721
H         59.88926       62.03530       37.33488
H         59.29454       63.45879       37.07817

Ca 1.70



