%chk=loop1.cluster109.chk
%nprocshared=48
%mem=10GB
%nosave
#b3lyp/svp scf=(tight,noincore) Test 
#IOP(5/87=12) Density=Current Pop=(MK,readradii) iop(6/33=2) iop(6/42=6)

loop1.cluster109 

   0  1 
C         77.92013       66.66908       17.69656
C         79.00156       67.65354       17.34441
O         79.30856       67.82695       16.17574
H         76.98547       66.92161       17.15642
H         78.24397       65.64116       17.43315
H         77.70067       66.68813       18.78750
N         79.60800       68.35628       18.33190
C         80.66656       69.33842       18.11901
C         81.98910       68.70650       17.67219
O         82.38441       67.66955       18.18353
C         80.82218       70.11171       19.43745
C         81.86563       71.17265       19.45469
O         82.74573       71.19830       20.46746
O         81.86416       72.06424       18.62410
H         79.26718       68.21047       19.29527
H         80.33391       70.08333       17.35882
H         81.03884       69.40203       20.26372
H         79.85136       70.61321       19.63625
N         82.73783       69.35015       16.73244
C         84.02808       68.90902       16.20763
C         85.10878       69.98337       16.40838
O         86.21587       69.79112       15.92047
C         83.85571       68.61974       14.69241
C         82.79515       67.53704       14.41103
C         83.22890       66.12878       14.86852
C         82.09551       65.09986       14.71275
N         81.18062       65.14323       15.85424
H         82.36873       70.22245       16.36312
H         84.37996       67.98689       16.71045
H         84.82031       68.31323       14.22905
H         83.52985       69.55821       14.18910
H         82.62552       67.48801       13.31142
H         81.83658       67.84393       14.87380
H         83.57202       66.09733       15.92277
H         84.08442       65.83313       14.22523
H         82.53056       64.07945       14.67683
H         81.54888       65.27358       13.75810
H         81.67882       64.83098       16.72009
H         80.83999       66.10827       16.00657
H         80.36779       64.50793       15.68645
N         84.86375       71.13860       17.10867
C         85.83750       72.22466       17.25239
C         86.21145       72.52110       18.70817
O         87.07588       73.35572       18.93253
C         85.20960       73.52293       16.69895
C         84.72180       73.39312       15.29130
O         85.51410       73.16812       14.39275
O         83.41096       73.48393       14.99849
H         83.94078       71.28030       17.53148
H         86.77031       71.98101       16.69764
H         85.94213       74.35801       16.74315
H         84.34436       73.78099       17.34067
N         85.54647       71.94031       19.74627
C         85.75601       72.32134       21.13978
C         85.44014       73.78308       21.41639
O         86.00571       74.34694       22.34355
H         84.84252       71.22717       19.54824
H         86.79465       72.08766       21.44729
H         85.07502       71.71832       21.78097
N         84.47589       74.43028       20.70362
C         84.07482       75.81755       20.94023
C         82.69252       75.90140       21.57971
O         82.23105       77.00437       21.83439
C         84.17674       76.63357       19.62242
C         83.37700       76.10847       18.45435
O         82.53473       75.07277       18.59537
O         83.51218       76.61844       17.35433
H         83.97739       73.89414       19.98316
H         84.76115       76.30811       21.66791
H         85.24402       76.63591       19.31781
H         83.87372       77.69090       19.79821
N         82.00415       74.77358       21.93808
C         80.72139       74.83899       22.62362
C         79.57943       75.29193       21.73719
O         78.48855       75.50309       22.25333
H         82.41366       73.84394       21.78204
H         80.82526       75.48935       23.51845
H         80.44986       73.82143       22.97991
N         79.72213       75.37019       20.38444
C         78.63135       75.66397       19.46522
C         78.35044       74.45832       18.59787
O         79.28377       73.77799       18.18308
C         78.98001       76.84387       18.52330
C         79.06465       78.17426       19.26940
O         80.18919       76.58100       17.85745
H         80.63158       75.13631       19.97280
H         77.69548       75.92485       20.01016
H         78.16128       76.93417       17.76896
H         80.30392       77.28657       17.16889
H         78.07627       78.41682       19.71417
H         79.83563       78.13343       20.06461
H         79.32502       78.98384       18.55307
N         77.08074       74.21409       18.17669
C         76.74969       73.23692       17.15017
C         76.13104       73.99611       15.99262
O         75.06456       74.58336       16.13599
C         75.81404       72.14550       17.71344
C         76.59445       71.26803       18.72446
C         75.21562       71.26735       16.59124
C         75.65686       70.52400       19.66738
H         76.31734       74.80969       18.54041
H         77.66670       72.72172       16.78353
H         74.98224       72.67228       18.23049
H         77.23797       71.89818       19.37307
H         77.26519       70.55897       18.18350
H         74.60945       71.88122       15.89328
H         76.01785       70.76726       16.00884
H         74.53594       70.49444       16.99764
H         74.97318       69.84508       19.12232
H         76.25119       69.93120       20.39287
H         75.05813       71.27099       20.23300
N         76.79394       74.05123       14.81414
C         76.32113       74.75731       13.62936
C         75.21438       73.98149       12.93912
O         74.85681       72.90528       13.38072
C         77.52736       74.95291       12.66009
C         78.53831       75.93319       13.25078
O         78.16796       73.72992       12.46128
H         77.71137       73.59390       14.77440
H         75.93058       75.75997       13.90735
H         77.19336       75.34641       11.67582
H         78.88637       73.86458       11.79197
H         78.11836       76.95722       13.24107
H         78.79455       75.64634       14.29050
H         79.46983       75.92408       12.64429
N         74.63484       74.48520       11.81905
C         73.72273       73.72429       10.96469
C         74.48357       72.55933       10.31958
O         73.93734       71.47336       10.19479
C         73.12097       74.68970        9.91117
C         72.11450       73.98525        8.97986
O         72.51089       75.75464       10.61375
H         74.89828       75.43972       11.53027
H         72.86864       73.33297       11.56488
H         73.93844       75.10847        9.28286
H         71.67995       76.04532       10.15780
H         71.68578       74.72288        8.26608
H         72.61115       73.19270        8.38427
H         71.28549       73.54258        9.57136
N         75.78164       72.72779        9.93122
C         76.62066       71.66352        9.37105
C         76.79970       70.50820       10.35476
O         76.52989       69.36603       10.01295
C         78.00043       72.27766        9.01881
C         79.06507       71.29479        8.51702
C         78.64695       70.54506        7.25009
C         79.83439       69.74429        6.70062
N         79.51642       69.14332        5.40689
H         76.20451       73.65949       10.06225
H         76.16133       71.29072        8.43098
H         78.43136       72.76740        9.91312
H         77.84993       73.07413        8.25607
H         79.33230       70.56983        9.31630
H         79.97159       71.90171        8.29475
H         78.33063       71.28981        6.48930
H         77.79476       69.86230        7.46208
H         80.13352       68.95229        7.42466
H         80.69487       70.43557        6.56458
H         79.15266       69.87337        4.75150
H         80.39124       68.74161        4.99866
H         78.80800       68.38359        5.52186
N         77.28820       70.76051       11.59454
C         77.55709       69.76334       12.62912
C         76.29147       69.03551       13.01648
O         76.31670       67.82259       13.16710
C         78.18257       70.46570       13.86858
C         79.58011       70.98356       13.50167
C         80.34226       71.67297       14.58224
O         79.85959       72.71497       15.28099
O         81.52005       71.40446       14.69654
H         77.46000       71.73483       11.81962
H         78.29773       69.01495       12.26657
H         78.28104       69.75077       14.71116
H         77.53211       71.30463       14.19727
H         79.53997       71.68207       12.65076
H         80.19877       70.11688       13.17519
N         75.13831       69.73064       13.18127
C         73.87345       69.13201       13.53729
H         73.12169       69.39354       12.76221
H         73.93354       68.02840       13.61879
H         73.54065       69.55370       14.50816
H         75.15495       70.73425       13.01985
Ca        81.58765       73.68814       16.32832
O         81.21688       75.97822       14.86894
H         81.01150       76.92928       14.69402
H         81.99016       75.76997       14.28832

Ca 1.70



