%chk=loop1.cluster141.chk
%nprocshared=48
%mem=10GB
%nosave
#b3lyp/svp scf=(tight,noincore) Test 
#IOP(5/87=12) Density=Current Pop=(MK,readradii) iop(6/33=2) iop(6/42=6)

loop1.cluster141 

   0  1 
C         88.24140       76.33120       58.86236
C         89.73530       76.35427       58.81383
O         90.30296       77.23046       58.19120
H         87.81101       77.18638       58.29941
H         87.88120       75.38067       58.41979
H         87.90740       76.39655       59.92006
N         90.44755       75.41648       59.48367
C         91.90549       75.42513       59.53866
C         92.57051       74.88149       58.28780
O         93.78384       74.99654       58.19680
C         92.44290       74.68988       60.79297
C         91.91876       73.29190       61.00522
O         90.65385       73.09168       61.42811
O         92.67394       72.34086       60.91108
H         89.91528       74.72585       60.01943
H         92.25346       76.47980       59.63467
H         92.19866       75.27666       61.70159
H         93.55339       74.65030       60.72312
N         91.87500       74.24298       57.30099
C         92.58078       73.68018       56.15742
C         92.90125       74.83595       55.14947
O         91.82927       74.88800       54.24036
C         91.78821       72.50368       55.52641
C         91.40122       71.39428       56.52441
C         92.59317       70.75052       57.25039
C         92.17486       69.52597       58.08365
N         91.16216       69.84793       59.09149
H         90.86376       74.08589       57.40331
H         93.49833       73.20662       56.54348
H         92.38821       72.05924       54.70248
H         90.83522       72.87478       55.09208
H         90.85703       70.61049       55.95579
H         90.70427       71.81281       57.27939
H         93.07455       71.49320       57.92336
H         93.34532       70.41397       56.50422
H         93.08235       69.12827       58.58968
H         91.78104       68.73276       57.41119
H         91.01965       69.02062       59.71363
H         91.47312       70.65327       59.67257
H         90.24842       70.07593       58.63904
N         94.15993       74.69264       54.38676
C         95.38190       74.33335       55.14956
C         96.57305       75.26305       54.85358
O         97.48840       74.83537       54.16048
C         95.71037       72.86599       54.75620
C         96.83369       72.23353       55.53814
O         97.20154       71.10502       55.25317
O         97.42188       72.88384       56.56118
H         94.30053       75.53158       53.77778
H         95.22566       74.37260       56.24224
H         95.95976       72.83775       53.67206
H         94.81943       72.22242       54.90392
N         96.69758       76.52876       55.36331
C         95.71547       77.19189       56.22107
C         96.16495       78.62357       56.60155
O         97.32782       78.94391       56.42091
H         97.55242       77.04287       55.10770
H         95.53025       76.60969       57.14612
H         94.78143       77.23485       55.64335
N         95.29729       79.57685       57.07635
C         93.87890       79.34938       57.29628
C         93.38195       80.07050       58.54332
O         94.00412       81.02334       58.99777
C         93.03897       79.84040       56.09356
C         93.56314       79.33461       54.78699
O         93.01749       78.25486       54.22737
O         94.54249       79.84676       54.27109
H         95.66158       80.53648       57.19966
H         93.70346       78.25956       57.42541
H         93.00274       80.94857       56.02554
H         91.99604       79.47726       56.23352
N         92.20308       79.69661       59.09984
C         91.53743       80.41600       60.17242
C         90.62477       81.50950       59.64542
O         89.91781       82.11859       60.43754
H         91.71622       78.90121       58.68878
H         92.26754       80.80613       60.91120
H         90.88462       79.68779       60.70341
N         90.54151       81.77106       58.30958
C         89.61264       82.71743       57.71600
C         88.56007       81.93763       56.99254
O         88.89513       80.99978       56.28230
C         90.33790       83.64112       56.70168
C         89.34326       84.54927       55.94958
O         91.03830       82.86353       55.76281
H         91.10945       81.21768       57.65674
H         89.12094       83.35778       58.48444
H         91.05528       84.26835       57.27637
H         91.66009       83.47308       55.28726
H         88.64619       83.94404       55.32734
H         88.74710       85.15739       56.66083
H         89.88724       85.22450       55.25867
N         87.26477       82.33182       57.04316
C         86.23948       81.71702       56.22791
C         85.70590       82.77032       55.27228
O         85.05000       83.71387       55.69790
C         85.19106       80.98823       57.11422
C         84.03531       80.37319       56.28967
C         84.63262       81.85153       58.25552
C         84.49214       79.19481       55.42999
H         87.01479       83.15572       57.61565
H         86.68984       80.91687       55.60319
H         85.72530       80.15967       57.63284
H         83.54131       81.14528       55.65801
H         83.27168       79.97341       56.98951
H         83.99859       81.21527       58.91067
H         85.45325       82.22253       58.90465
H         84.03203       82.70302       57.88357
H         83.60893       78.72093       54.95366
H         85.19365       79.51136       54.63295
H         84.98691       78.43648       56.07510
N         85.99578       82.66941       53.94507
C         85.52273       83.59132       52.91626
C         84.55017       82.88472       51.97777
O         83.83093       83.55478       51.25200
C         86.75701       84.12104       52.12457
C         86.40383       85.06961       50.96875
O         87.47553       83.02759       51.60503
H         86.59304       81.88174       53.64730
H         84.97317       84.43911       53.38411
H         87.39933       84.66897       52.85215
H         88.34943       83.37239       51.28365
H         87.33796       85.42746       50.48436
H         85.82187       84.54177       50.18483
H         85.83273       85.94607       51.33393
N         84.52711       81.52078       51.90106
C         83.76489       80.76235       50.93078
C         84.26677       81.00661       49.51875
O         84.85159       82.04062       49.22439
C         82.22975       80.84950       51.11584
C         81.85906       80.41442       52.54316
O         81.61017       79.98172       50.20085
H         85.13189       80.96218       52.50890
H         84.02696       79.69902       51.13160
H         81.87250       81.88808       50.93006
H         80.63213       80.14446       50.25673
H         82.29249       79.41412       52.76395
H         82.24371       81.14361       53.28618
H         80.75718       80.34463       52.65717
N         84.14339       80.00331       48.61627
C         84.60090       80.06480       47.24713
C         85.72109       79.08981       46.83736
O         86.31540       79.40411       45.81501
C         83.38761       79.83390       46.32148
C         82.26094       80.86503       46.49374
C         82.66126       82.25766       45.98294
C         81.49457       83.25826       46.00645
N         80.97295       83.48709       47.35537
H         83.63026       79.18934       48.91210
H         85.02725       81.07084       47.04860
H         82.96929       78.83526       46.56396
H         83.69482       79.81167       45.25432
H         81.95418       80.90606       47.55969
H         81.38970       80.51506       45.89998
H         82.99425       82.16097       44.92555
H         83.50455       82.66630       46.57688
H         80.67543       82.89214       45.34889
H         81.86124       84.22310       45.59091
H         80.23406       84.22503       47.30833
H         80.53168       82.61932       47.73402
H         81.73681       83.80961       47.99254
N         86.09844       77.89882       47.42314
C         85.63252       77.18556       48.61315
C         84.15035       76.91165       48.66158
O         83.52269       77.09430       49.69860
C         86.34180       77.68030       49.89239
C         87.86724       77.52514       49.69249
C         88.62510       77.55391       50.97977
O         88.68625       78.67680       51.71749
O         89.20113       76.54610       51.35754
H         86.84984       77.39613       46.92215
H         86.01811       76.14556       48.50530
H         86.02998       77.01034       50.72504
H         86.08226       78.72459       50.16679
H         88.25792       78.29461       48.99046
H         88.06757       76.52931       49.23786
N         83.53303       76.39649       47.56677
C         82.10869       76.15628       47.52887
H         81.56660       77.12380       47.45846
H         81.86367       75.54957       46.63279
H         81.77768       75.61008       48.43599
H         84.09478       76.17134       46.73229
Ca        91.09143       76.86852       53.38934
O         88.91967       75.41717       54.29564
H         89.11251       74.80587       55.04949
H         88.23288       74.95729       53.75358
O         92.47528       78.74075       51.44487
H         93.40285       78.95313       51.71763
H         92.57107       78.33064       50.55001
O         89.67819       77.96172       55.36996
H         89.47165       78.92310       55.37904
H         89.21076       77.59519       56.15534
O         92.26297       75.55164       51.31169
H         92.44097       74.58139       51.24597
H         92.46236       75.91468       50.41412

Ca 1.70



