%chk=loop4.cluster82.chk
%nprocshared=48
%mem=10GB
%nosave
#b3lyp/svp scf=(tight,noincore) Test 
#IOP(5/87=12) Density=Current Pop=(MK,readradii) iop(6/33=2) iop(6/42=6)

loop4.cluster82 

   -3  1 
C         46.04391       48.44002       48.45953
C         46.47060       47.83883       49.76491
O         47.59019       47.36442       49.85701
H         45.06050       48.94653       48.55263
H         46.79040       49.19452       48.12853
H         45.96897       47.64216       47.69333
N         45.63401       47.85995       50.84294
C         45.98810       47.36274       52.16976
C         47.22916       48.04521       52.72729
O         47.88270       47.50249       53.59033
C         45.93500       45.81616       52.27462
C         46.97782       45.06053       51.50560
O         46.68249       44.47342       50.47637
O         48.19091       44.89853       52.07059
H         44.70837       48.30227       50.73386
H         45.16907       47.68622       52.84960
H         44.92669       45.49385       51.93994
H         46.02716       45.50709       53.34032
N         47.53764       49.30576       52.31884
C         48.60659       50.13066       52.86836
C         48.30930       50.44842       54.31998
O         49.18114       50.35198       55.17662
C         50.05557       49.60781       52.61835
C         51.01930       50.82654       52.68368
C         50.18748       48.87367       51.27311
C         52.49909       50.46307       52.65259
H         46.94368       49.75491       51.61047
H         48.51124       51.09385       52.31523
H         50.31827       48.87311       53.41194
H         50.84812       51.38326       53.62735
H         50.80225       51.52569       51.84296
H         49.86379       49.51193       50.42737
H         51.22567       48.52315       51.10760
H         49.56292       47.96184       51.27867
H         52.79515       50.03018       51.67711
H         53.09235       51.38835       52.81269
H         52.73272       49.74503       53.46401
N         47.07287       50.88797       54.65081
C         46.71703       51.37162       55.96749
C         45.37513       50.80428       56.39788
O         44.35763       51.38166       56.03909
C         46.74602       52.92985       55.96462
C         46.07134       53.65946       54.81315
O         45.49899       53.06270       53.91648
O         46.14679       55.00189       54.75694
H         46.36738       50.94197       53.90197
H         47.47648       51.08675       56.72523
H         47.81291       53.23731       55.92074
H         46.32550       53.30582       56.92177
N         45.25212       49.71269       57.21305
C         46.34661       48.86686       57.67946
C         46.79213       47.87519       56.62015
O         45.93618       47.40249       55.88569
H         44.30196       49.45340       57.52285
H         45.91234       48.21307       58.46634
H         47.14971       49.44526       58.17336
N         48.08114       47.42553       56.49526
C         49.21080       47.80859       57.34193
C         50.48344       47.18199       56.76190
O         50.50420       45.96346       56.63439
C         49.01289       47.27157       58.77478
C         50.14380       47.67569       59.67478
O         50.39025       48.85720       59.85692
O         50.88451       46.73526       60.29055
H         48.26114       46.73464       55.75130
H         49.26642       48.90827       57.35003
H         48.93388       46.16110       58.74547
H         48.07923       47.65288       59.22018
N         51.57229       47.89174       56.33584
C         51.80897       49.31877       56.52585
C         53.23425       49.56363       56.97596
O         53.75732       50.64799       56.74612
H         52.31317       47.36682       55.84294
H         51.12898       49.80849       57.24521
H         51.69215       49.80831       55.54222
N         53.92610       48.59707       57.64138
C         55.29913       48.75787       58.10318
C         56.34432       48.88102       56.99207
O         57.49344       49.13214       57.31853
C         55.68894       47.57211       59.01987
C         55.66271       46.20769       58.28753
C         56.05445       45.04849       59.16430
N         55.96342       43.78815       58.68196
O         56.44445       45.23406       60.30798
H         53.42018       47.73658       57.89217
H         55.34159       49.68838       58.71351
H         54.97339       47.53744       59.87175
H         56.70403       47.75164       59.43596
H         56.34679       46.22295       57.41257
H         54.64042       45.99594       57.91790
H         55.61410       43.61952       57.72653
H         56.22257       42.98327       59.27033
N         56.04533       48.65703       55.67553
C         57.08796       48.69190       54.64796
C         57.66213       47.30806       54.44840
O         56.91376       46.34795       54.33787
C         56.58199       49.28415       53.30596
C         57.73788       49.40340       52.28810
C         55.99855       50.68100       53.53184
H         55.09701       48.36524       55.40429
H         57.91074       49.36569       54.97134
H         55.79463       48.62669       52.87296
H         57.37168       49.81086       51.32296
H         58.53634       50.07152       52.67865
H         58.19512       48.42328       52.06881
H         55.68522       51.12903       52.56539
H         55.11366       50.62727       54.19663
H         56.76070       51.33983       54.00152
N         59.01421       47.16180       54.31913
C         59.66050       45.88799       54.03759
C         59.21791       45.33324       52.68176
O         58.62941       46.04351       51.88218
C         59.53619       44.90531       55.23076
C         60.14969       45.45851       56.49275
N         61.49361       45.61606       56.59780
O         59.43239       45.72539       57.44372
H         59.61229       47.99900       54.36918
H         60.75078       46.07680       53.91494
H         60.08596       43.95957       55.05306
H         58.47222       44.64858       55.39156
H         62.12030       45.35488       55.82142
H         61.91040       45.96468       57.47444
N         59.62658       44.09522       52.31984
C         59.64300       43.62229       50.93939
C         58.24967       43.45589       50.33069
O         57.27038       43.38960       51.05932
C         60.36371       42.24158       50.87616
C         61.51731       42.05623       51.86104
C         61.29183       41.28004       53.01877
C         62.77378       42.66175       51.68416
C         62.29760       41.09227       53.96292
C         63.79537       42.44612       52.62743
C         63.55808       41.65120       53.76307
O         64.53465       41.41079       54.66218
H         60.07423       43.53187       53.03574
H         60.22529       44.37655       50.36584
H         60.66697       41.98263       49.83960
H         59.59704       41.49175       51.16854
H         60.31999       40.83811       53.20078
H         62.96842       43.28081       50.81833
H         62.09695       40.50035       54.84805
H         64.77030       42.89300       52.47849
H         65.44385       41.70940       54.52332
N         58.12083       43.30689       48.97768
C         56.87635       42.92568       48.30194
C         55.71732       43.89678       48.47655
O         54.59347       43.52860       48.15395
C         56.47426       41.47691       48.65103
C         57.57320       40.47354       48.26535
C         57.10405       39.06438       48.47957
O         57.75864       38.25613       49.33378
O         56.13428       38.64180       47.86905
H         58.96194       43.41465       48.39281
H         57.07137       42.91375       47.20592
H         55.56558       41.21940       48.06179
H         56.23018       41.37974       49.72987
H         58.48557       40.66147       48.87111
H         57.83658       40.59189       47.19082
N         55.92339       45.19086       48.84249
C         54.86401       46.19396       48.85534
C         55.15749       47.18382       47.75308
O         54.34421       47.33776       46.85326
C         54.77917       46.88578       50.23944
C         54.37124       45.90453       51.35956
C         52.95675       45.39492       51.18513
O         52.48198       44.38313       51.93156
O         52.21205       45.91094       50.36786
H         56.88544       45.50154       49.04325
H         53.87524       45.74107       48.61919
H         54.03920       47.71716       50.20482
H         55.76779       47.32659       50.48589
H         54.43481       46.41544       52.34626
H         55.09304       45.06155       51.37252
N         56.34310       47.85629       47.74178
C         56.74507       48.72774       46.65942
H         57.70457       48.35253       46.24367
H         56.00318       48.76003       45.83445
H         56.89890       49.75206       47.05301
H         57.00665       47.72268       48.51637
Ca        50.24720       44.00132       51.66819
O         50.68982       46.08998       53.29808
H         50.49717       46.17481       54.25633
H         49.87951       46.44313       52.86773
O         48.61896       41.84072       50.79783
H         48.51728       40.88870       50.55016
H         47.76284       42.08090       51.23275
O         51.55742       43.01008       49.07885
H         52.36987       43.54239       49.25759
H         51.34896       43.19796       48.13015
O         50.30933       43.15195       54.30273
H         50.97909       43.80858       54.61752
H         50.57183       42.30306       54.73559
O         51.65359       41.50265       51.97958
H         52.15418       40.91215       51.36369
H         51.40186       40.92224       52.74050
O         49.44553       44.96677       49.11452
H         48.51339       45.28458       49.11112
H         49.96039       45.72775       48.75097

Ca 1.70



