%chk=loop2.cluster202.chk
%nprocshared=48
%mem=10GB
%nosave
#b3lyp/svp scf=(tight,noincore) Test 
#IOP(5/87=12) Density=Current Pop=(MK,readradii) iop(6/33=2) iop(6/42=6)

loop2.cluster202 

   -2  1 
C        116.03840       57.03909       -1.57322
C        114.58608       57.30605       -1.84333
O        113.77513       56.44050       -1.54713
H        116.55342       57.89824       -1.10134
H        116.12874       56.18665       -0.86703
H        116.52788       56.74841       -2.52585
N        114.13152       58.47252       -2.38169
C        114.94106       59.66266       -2.63528
C        114.81188       60.16520       -4.05783
O        113.73814       60.08615       -4.62613
C        114.61424       60.78124       -1.59795
C        113.17485       61.05085       -1.20095
O        112.23979       60.47300       -1.72434
O        112.92763       61.91463       -0.19812
H        113.12101       58.53955       -2.54477
H        116.02016       59.46828       -2.49284
H        115.07435       61.74099       -1.92732
H        115.11233       60.48258       -0.65412
N        115.90527       60.72298       -4.67404
C        115.91439       61.42850       -5.95652
C        115.29726       62.80930       -5.80082
O        116.02022       63.78899       -5.93130
C        115.35227       60.60543       -7.11702
H        116.80345       60.70155       -4.16794
H        116.98633       61.60816       -6.20961
H        114.26767       60.41370       -7.01012
H        115.51669       61.15081       -8.07196
H        115.89438       59.63737       -7.17542
N        113.98292       62.96752       -5.47067
C        113.40066       64.25403       -5.12617
C        112.87878       64.23852       -3.70475
O        112.50244       63.18927       -3.20567
C        112.33252       64.67367       -6.14343
C        111.12555       63.78492       -6.36851
O        110.88921       62.63554       -5.70171
O        110.31671       64.12911       -7.21299
H        113.37470       62.15101       -5.42143
H        114.18064       65.04856       -5.16288
H        112.84845       64.77346       -7.12294
H        111.95828       65.67983       -5.85398
N        112.84072       65.39265       -2.98609
C        112.42591       65.45041       -1.59711
C        111.11970       66.18389       -1.46836
O        110.95294       67.23881       -2.06686
H        113.13927       66.27218       -3.43496
H        113.21370       65.97925       -1.02077
H        112.32228       64.43942       -1.14562
N        110.15150       65.68616       -0.65020
C        108.85699       66.31503       -0.45931
C        108.72768       66.85760        0.94780
O        109.00551       66.14295        1.90390
C        107.71618       65.29728       -0.65347
C        107.49868       64.81741       -2.06214
N        106.32654       64.21953       -2.38154
O        108.34961       64.98953       -2.92246
H        110.35471       64.83486       -0.10399
H        108.68747       67.14881       -1.17963
H        106.77942       65.82099       -0.36695
H        107.83780       64.42065        0.02376
H        105.58685       64.11213       -1.66986
H        106.14163       63.90384       -3.34416
N        108.15284       68.07564        1.14456
C        107.76321       68.53569        2.47110
C        106.79143       69.70465        2.41146
O        106.58008       70.25678        1.33930
H        107.87249       68.61708        0.31225
H        108.66125       68.76843        3.08601
H        107.20822       67.71405        2.95600
N        106.11655       70.14783        3.51044
C        106.29106       69.60952        4.85991
C        105.44260       68.35653        5.14624
O        105.59307       67.79909        6.22410
C        105.96228       70.72028        5.89667
C        106.87102       71.94716        5.73063
O        104.62531       71.13793        5.76583
H        105.47978       70.94935        3.38274
H        107.36122       69.34616        5.00646
H        106.14639       70.33342        6.92648
H        104.07542       70.56681        6.36165
H        107.93858       71.65906        5.83090
H        106.72510       72.43083        4.74087
H        106.63357       72.69895        6.51304
N        104.52738       67.87162        4.24558
C        103.63546       66.71980        4.47411
C        102.63860       67.01924        5.59701
O        103.06327       67.10904        6.74050
C        104.40313       65.37818        4.71082
C        105.41944       65.06721        3.58416
C        103.43370       64.19431        4.88945
C        104.82133       64.98544        2.17375
H        104.42530       68.35744        3.34367
H        103.06984       66.58138        3.54360
H        104.97953       65.44863        5.65839
H        105.92560       64.10334        3.81066
H        106.20031       65.84871        3.58424
H        102.81761       64.03133        3.98352
H        103.99635       63.26046        5.10393
H        102.75481       64.37291        5.74796
H        104.37643       65.95452        1.86830
H        105.62668       64.74881        1.45201
H        104.05447       64.18840        2.09973
N        101.29692       67.22106        5.38333
C        100.63724       67.20584        4.07245
C        100.39935       65.78968        3.55312
O        101.02330       65.39430        2.57525
C         99.32745       68.04425        4.06282
C         98.22639       67.78347        5.08058
O         98.44078       67.08674        6.21409
O         97.14129       68.31544        4.91957
H        100.74269       67.49253        6.20488
H        101.28882       67.74326        3.34904
H         98.89372       67.93199        3.04501
H         99.59740       69.11351        4.18762
N         99.50241       64.97325        4.17053
C         99.27679       63.57853        3.84291
C         97.77434       63.28948        3.65784
O         96.96530       64.13008        4.04265
C         99.85636       62.78336        5.04405
C         99.15335       63.08031        6.35585
C         99.58925       64.12909        7.19053
C         98.05172       62.30509        6.74909
C         98.92583       64.39457        8.39294
C         97.39955       62.56737        7.95732
C         97.83510       63.61111        8.77803
H         98.99669       65.33139        4.97297
H         99.84085       63.31605        2.92392
H        100.91914       63.07209        5.14402
H         99.90551       61.69310        4.90940
H        100.43105       64.74741        6.90326
H         97.70414       61.49672        6.12032
H         99.25747       65.20725        9.02714
H         96.55564       61.96042        8.25719
H         97.32691       63.81253        9.71238
N         97.30573       62.10265        3.14893
C         98.15216       61.05871        2.60130
C         98.80970       61.46855        1.29774
O         98.59139       62.57412        0.82193
C         97.20569       59.86344        2.44679
C         96.12246       60.17245        3.48129
C         95.93509       61.67302        3.27508
H         98.90804       60.78885        3.34877
H         96.71508       59.89728        1.45011
H         97.71035       58.87969        2.57392
H         95.20035       59.56299        3.37827
H         96.54667       60.01290        4.49947
H         95.40965       61.84456        2.30875
H         95.37783       62.14719        4.11337
N         99.70375       60.62886        0.71108
C        100.55915       61.05106       -0.39307
C        101.74381       60.08198       -0.50555
O        101.91477       59.47222       -1.55089
C         99.73979       61.15642       -1.71452
C        100.53484       61.73562       -2.90945
C         99.76071       61.57061       -4.18959
O        100.25578       60.96808       -5.13025
O         98.51450       62.06749       -4.30023
H         99.87758       59.71847        1.16098
H        100.98662       62.05226       -0.15525
H         98.85790       61.81873       -1.57203
H         99.36315       60.14148       -1.96347
H        101.51207       61.23274       -3.04939
H        100.74326       62.81170       -2.72912
N        102.63425       59.87260        0.51362
C        102.54644       60.42506        1.85511
H        101.63471       61.00961        2.05912
H        102.57301       59.58082        2.57919
H        103.41817       61.07957        2.05299
H        103.43724       59.25361        0.32574
Ca       111.14599       60.91699       -4.26372
O        108.36850       59.64764       -4.67553
H        108.09366       59.25078       -5.53990
H        108.08938       60.59565       -4.73717
O        110.93712       59.54283       -6.80404
H        110.23595       58.85033       -6.89581
H        110.61359       60.30062       -7.35302
O        110.93048       58.01436       -3.71352
H        111.67407       57.55517       -4.17946
H        110.55967       57.33274       -3.09949
O        109.62063       62.20322       -2.33269
H        109.97125       62.33882       -1.41761
H        108.64007       62.29701       -2.24877

Ca 1.70



