%chk=loop1.cluster113.chk
%nprocshared=48
%mem=10GB
%nosave
#b3lyp/svp scf=(tight,noincore) Test 
#IOP(5/87=12) Density=Current Pop=(MK,readradii) iop(6/33=2) iop(6/42=6)

loop1.cluster113 

   0  1 
C         45.50900       -9.46804       25.25000
C         45.71583      -10.22626       26.52492
O         46.68263      -10.96546       26.63883
H         44.62418       -8.79935       25.32572
H         46.39918       -8.84064       25.03837
H         45.34214      -10.18000       24.41665
N         44.84346      -10.07368       27.55214
C         45.00986      -10.75307       28.82666
C         44.48424      -12.17295       28.81626
O         44.90989      -12.95066       29.65747
C         44.39511       -9.92291       29.97504
C         42.93932       -9.54091       29.83530
O         42.25959       -9.92712       28.89662
O         42.39389       -8.71741       30.74860
H         44.06401       -9.41303       27.42892
H         46.09911      -10.81265       29.05882
H         44.95882       -8.96949       30.02328
H         44.53563      -10.45883       30.93960
N         43.48334      -12.55480       27.96358
C         42.86961      -13.87495       28.04574
C         42.73771      -14.48414       26.64667
O         41.90018      -13.99192       25.90387
C         41.44805      -13.71660       28.66239
C         41.43874      -13.03784       30.05049
C         39.99892      -12.85722       30.57962
C         39.93246      -12.19543       31.97382
N         40.10432      -10.74315       31.91838
H         43.07890      -11.86788       27.31335
H         43.45846      -14.52276       28.71279
H         40.96844      -14.71655       28.74133
H         40.83094      -13.08521       27.98427
H         41.92354      -12.05375       29.98484
H         42.02425      -13.65742       30.76260
H         39.56335      -13.87297       30.66588
H         39.37653      -12.26933       29.86708
H         40.69681      -12.65351       32.63910
H         38.93320      -12.39184       32.41904
H         40.21825      -10.36442       32.88712
H         40.94321      -10.50049       31.36141
H         39.25975      -10.29902       31.48733
N         43.48152      -15.53148       26.15819
C         44.66682      -16.17078       26.73484
C         44.45609      -16.96291       28.01461
O         43.40507      -16.85161       28.62355
C         45.80606      -15.14624       26.91351
C         46.24877      -14.59712       25.61040
O         46.66881      -15.43820       24.67008
O         46.28023      -13.39688       25.41092
H         43.23289      -15.85487       25.20802
H         44.97249      -16.92912       25.98156
H         46.69024      -15.62493       27.36055
H         45.52668      -14.32549       27.58539
N         45.41430      -17.81690       28.50302
C         46.63028      -18.22783       27.80145
C         47.86961      -17.88505       28.59670
O         47.90817      -18.24964       29.76430
H         45.23348      -18.27207       29.41156
H         46.66691      -17.89604       26.76069
H         46.60301      -19.33594       27.72507
N         48.97702      -17.27346       28.07711
C         49.15743      -16.79626       26.70414
C         49.76081      -15.40396       26.76627
O         49.19537      -14.48513       26.18747
C         49.95424      -17.84986       25.90305
C         49.98461      -17.62836       24.41050
O         50.30410      -18.54531       23.66966
O         49.64764      -16.44287       23.88032
H         49.78891      -17.20426       28.70445
H         48.20809      -16.72207       26.16029
H         49.39331      -18.79993       26.04225
H         50.98449      -17.99428       26.28589
N         50.87795      -15.14977       27.51561
C         51.41168      -13.81149       27.70597
C         52.04577      -13.23718       26.46161
O         52.50518      -12.10798       26.50200
H         51.34095      -15.92227       28.01686
H         52.22109      -13.85228       28.46890
H         50.61240      -13.14394       28.09535
N         52.13938      -13.98629       25.32763
C         52.91345      -13.58335       24.16975
C         52.02071      -13.10742       23.05258
O         51.01584      -13.73453       22.75180
C         53.83321      -14.74408       23.72433
C         53.08579      -15.97413       23.17544
O         54.61981      -15.12481       24.82308
H         51.73782      -14.92329       25.31296
H         53.59717      -12.74995       24.44517
H         54.48912      -14.35493       22.90962
H         55.45052      -15.52543       24.45822
H         52.34383      -16.37256       23.88836
H         52.56917      -15.72939       22.22399
H         53.80617      -16.79225       22.97678
N         52.38440      -11.99456       22.36332
C         51.66381      -11.48351       21.21215
C         52.60684      -11.57170       20.02151
O         52.98735      -10.56194       19.44406
C         51.08685      -10.06778       21.52726
C         50.28469       -9.52959       20.31002
C         52.16324       -9.08969       22.04236
C         49.56985       -8.20577       20.57148
H         53.25687      -11.51704       22.63094
H         50.78634      -12.12439       20.96807
H         50.35622      -10.19261       22.35895
H         49.50844      -10.27746       20.05295
H         50.92192       -9.39619       19.41556
H         52.57103       -9.45101       23.00979
H         52.99855       -8.97085       21.32632
H         51.73288       -8.09519       22.26291
H         48.94571       -7.95128       19.68901
H         48.91283       -8.28327       21.46301
H         50.29949       -7.38299       20.71182
N         53.01279      -12.79686       19.58817
C         53.79066      -12.96882       18.36824
C         52.89954      -13.05495       17.14703
O         53.42505      -13.07183       16.04432
C         54.68094      -14.24512       18.43411
C         53.86706      -15.54598       18.58641
O         55.58902      -14.16417       19.50032
H         52.61107      -13.62452       20.05141
H         54.45241      -12.08413       18.22515
H         55.24905      -14.33128       17.47803
H         56.11033      -13.32908       19.37674
H         53.09806      -15.64379       17.79360
H         54.54074      -16.42416       18.51294
H         53.36175      -15.60050       19.57119
N         51.54167      -13.17308       17.27258
C         50.65439      -13.44330       16.15336
C         50.93344      -14.82927       15.59524
O         52.08423      -15.22223       15.44993
C         50.63785      -12.34300       15.06993
C         50.39202      -10.96253       15.70473
O         49.60717      -12.64543       14.15903
H         51.10770      -13.13956       18.20379
H         49.61973      -13.46006       16.56775
H         51.60714      -12.32836       14.52912
H         49.51201      -11.88107       13.53383
H         51.19461      -10.71518       16.43108
H         50.39664      -10.17849       14.91858
H         49.41192      -10.93960       16.22762
N         49.89660      -15.62247       15.23720
C         50.05611      -16.96833       14.72587
C         49.28387      -18.09145       15.44598
O         49.68394      -19.22048       15.20043
C         49.77762      -16.97156       13.20554
C         50.87216      -16.26762       12.37545
C         52.19116      -17.07558       12.36628
C         53.25703      -16.49482       11.42676
N         52.93388      -16.72261       10.01603
H         48.98025      -15.19619       15.24709
H         51.10405      -17.28832       14.88185
H         48.81048      -16.46250       13.03076
H         49.68331      -18.00460       12.80881
H         51.05535      -15.23497       12.74865
H         50.48564      -16.18480       11.34129
H         51.99881      -18.13170       12.07373
H         52.62387      -17.07530       13.38549
H         54.22366      -17.00386       11.64058
H         53.38938      -15.41028       11.63277
H         53.66486      -16.26853        9.42307
H         52.93817      -17.75042        9.81737
H         52.00544      -16.32236        9.76039
N         48.20219      -17.99423       16.29861
C         47.35228      -16.85883       16.64939
C         46.81104      -16.11980       15.44505
O         46.71984      -14.89898       15.46311
C         47.89712      -15.97312       17.78386
C         47.99072      -16.73405       19.11048
C         48.20387      -15.78981       20.24691
O         48.37161      -14.59347       20.06399
O         48.09084      -16.24346       21.48901
H         47.85506      -18.89886       16.65907
H         46.42619      -17.30358       17.07886
H         47.14395      -15.16758       17.94174
H         48.87146      -15.50226       17.55861
H         48.78844      -17.50664       19.10475
H         47.01612      -17.23802       19.30173
N         46.42701      -16.81662       14.34615
C         45.97065      -16.14319       13.15297
H         45.06770      -15.54092       13.37730
H         46.76836      -15.47115       12.76923
H         45.73591      -16.89552       12.37303
H         46.49278      -17.84415       14.34511
Ca        47.82802      -14.66591       22.99049
O         47.76357      -11.83092       21.57121
H         47.89763      -11.77852       20.59280
H         46.79514      -11.66849       21.68693
O         45.37015      -13.70071       22.19747
H         44.42264      -13.80104       21.93949
H         45.34626      -13.19933       23.05047
O         49.07872      -11.76563       24.67843
H         49.33481      -12.09807       25.57411
H         48.09467      -11.67950       24.71882

Ca 1.70



