%chk=loop1.cluster116.chk
%nprocshared=48
%mem=10GB
%nosave
#b3lyp/svp scf=(tight,noincore) Test 
#IOP(5/87=12) Density=Current Pop=(MK,readradii) iop(6/33=2) iop(6/42=6)

loop1.cluster116 

   0  1 
C         93.53154       77.10800       53.99265
C         92.92766       77.59023       52.70878
O         91.85996       78.18588       52.72784
H         94.50646       77.62045       54.14494
H         92.87477       77.33750       54.85788
H         93.70426       76.01380       53.93984
N         93.60270       77.39907       51.54020
C         93.17694       77.93704       50.25310
C         93.07671       79.45238       50.33536
O         92.16888       80.03783       49.76148
C         91.89386       77.22982       49.75028
C         91.50776       77.63455       48.35212
O         90.27250       78.11171       48.10451
O         92.30451       77.51548       47.43501
H         94.50604       76.90184       51.57389
H         93.98917       77.70339       49.52930
H         91.04118       77.42416       50.43664
H         92.08590       76.13622       49.74299
N         93.95871       80.14783       51.11253
C         93.85295       81.58622       51.29663
C         94.39759       82.34777       50.10815
O         94.10433       83.53023       49.98673
C         94.59584       82.03898       52.56496
C         94.13386       81.33101       53.85594
C         92.63586       81.45323       54.18374
C         92.17232       82.91569       54.22246
N         90.82896       83.03506       54.78227
H         94.66219       79.62863       51.65639
H         92.77685       81.84164       51.41418
H         94.46715       83.13651       52.68687
H         95.68418       81.84553       52.44273
H         94.71346       81.77299       54.69467
H         94.38951       80.25119       53.82189
H         92.48997       80.98722       55.18300
H         92.01688       80.88314       53.45633
H         92.17888       83.33748       53.19268
H         92.87422       83.50413       54.85046
H         90.57802       84.04890       54.83157
H         90.13379       82.53591       54.18184
H         90.81408       82.64075       55.75105
N         95.22881       81.75238       49.20173
C         95.67634       82.45612       48.01059
C         94.60813       82.34532       46.93466
O         94.72046       83.00202       45.92275
C         97.03561       81.87829       47.55262
C         97.85050       82.73092       46.59853
O         97.35134       83.82746       45.98610
O         99.01317       82.42958       46.40201
H         95.51145       80.76855       49.32987
H         95.86298       83.51864       48.28531
H         96.90479       80.85043       47.13988
H         97.66186       81.78314       48.46606
N         93.53222       81.51543       47.07883
C         92.57816       81.29363       46.01407
C         93.28313       80.59603       44.88810
O         93.81244       79.51195       45.09655
H         93.40389       80.97875       47.93806
H         92.13268       82.26273       45.70093
H         91.76320       80.63172       46.37470
N         93.37657       81.18748       43.66898
C         94.16272       80.60229       42.58943
C         95.62442       80.43386       42.97134
O         96.05439       80.94411       43.99280
C         94.02530       81.43776       41.29318
C         94.28750       82.93853       41.37505
O         94.52598       83.58522       42.54087
O         94.10639       83.60707       40.37151
H         92.88447       82.07964       43.51857
H         93.76532       79.58131       42.39168
H         92.97119       81.33401       40.95086
H         94.66577       80.99440       40.50134
N         96.45399       79.69337       42.18601
C         97.87057       79.56410       42.47534
C         98.15449       78.75149       43.71317
O         97.22964       78.23171       44.33366
H         96.07619       79.23139       41.34523
H         98.31139       80.57879       42.57058
H         98.36867       79.05282       41.62488
N         99.44170       78.55791       44.11381
C         99.78442       77.71358       45.25294
C        101.17303       77.11033       45.10538
O        101.94393       77.53942       44.24790
C         99.60690       78.52406       46.56542
C         99.69540       77.71419       47.85894
O        100.57285       79.54040       46.61978
H        100.19379       78.99183       43.55058
H         99.08904       76.84234       45.23576
H         98.57955       78.95911       46.56994
H        100.17184       80.34127       46.20289
H         99.53444       78.39499       48.72165
H         98.91079       76.92822       47.88067
H        100.69672       77.26397       47.99716
N        101.52728       76.03628       45.86038
C        102.78424       75.31779       45.71269
C        102.54574       73.94970       45.06542
O        103.50192       73.30084       44.67897
C        103.54636       75.33449       47.06177
C        105.00408       74.82460       46.94602
C        102.80065       74.57432       48.17684
C        105.96253       75.69360       47.76375
H        100.82890       75.66265       46.52082
H        103.42736       75.86546       44.98433
H        103.58802       76.41529       47.32977
H        105.37393       74.89192       45.90343
H        105.06171       73.76260       47.26638
H        102.68707       73.50450       47.89666
H        103.35933       74.63288       49.13275
H        101.79150       74.99140       48.35897
H        106.02830       76.69786       47.28513
H        105.61403       75.82022       48.80896
H        106.97909       75.24950       47.76291
N        101.26898       73.52725       44.79390
C        100.98207       72.52317       43.77843
C        100.99467       71.13494       44.36381
O        100.35408       70.90614       45.38069
C         99.61779       72.79643       43.08296
C         99.39761       74.28395       42.75532
O         99.57854       72.07558       41.87670
H        100.47971       74.07945       45.12842
H        101.73726       72.62694       42.96529
H         98.76021       72.50239       43.73301
H         99.25694       71.16210       42.08741
H        100.30065       74.73338       42.29180
H         98.53138       74.40370       42.07406
H         99.14240       74.85778       43.67127
N        101.68390       70.13604       43.74498
C        101.77923       68.79470       44.31753
C        102.61087       68.80779       45.58783
O        102.61428       67.82289       46.31367
C        102.41325       67.82500       43.27847
C        102.59692       66.39466       43.82502
O        103.64773       68.34948       42.83810
H        102.15434       70.34247       42.85040
H        100.75139       68.43879       44.55289
H        101.70732       67.78349       42.41982
H        104.18333       67.62401       42.42411
H        102.83218       65.70064       42.99188
H        103.45285       66.35937       44.53405
H        101.67763       66.04286       44.33661
N        103.42671       69.85833       45.86235
C        104.50862       69.73878       46.81831
C        104.09692       70.22838       48.18185
O        103.03260       70.81328       48.33430
C        105.68233       70.59963       46.32489
C        106.16431       70.21306       44.90148
C        107.24045       71.18000       44.38490
C        106.67760       72.59422       44.12957
N        107.74116       73.56153       43.88510
H        103.44883       70.65491       45.21260
H        104.84582       68.67993       46.88012
H        106.54081       70.54204       47.02755
H        105.30166       71.63528       46.34325
H        105.33774       70.20343       44.15959
H        106.58084       69.18429       44.94933
H        107.65679       70.79485       43.42747
H        108.05877       71.21121       45.13387
H        106.12726       72.95861       45.00544
H        105.96552       72.57177       43.27290
H        108.26504       73.32492       43.01397
H        107.31234       74.51161       43.79229
H        108.38872       73.57627       44.70739
N        104.94090       70.03190       49.22865
C        104.74540       70.63154       50.53994
C        104.37090       69.58545       51.57225
O        104.73660       68.43120       51.40060
C        106.08209       71.28758       50.95214
C        106.32561       72.58891       50.18467
C        107.75182       73.03551       50.32338
O        108.28367       73.25469       51.54083
O        108.44099       73.18502       49.32661
H        105.78449       69.45724       49.07390
H        103.94145       71.38013       50.47397
H        106.90002       70.55477       50.74863
H        106.11806       71.51686       52.03938
H        105.63914       73.36572       50.58806
H        106.10447       72.44995       49.10588
N        103.71633       69.90594       52.73311
C        103.18359       71.22000       53.06882
H        102.14027       71.10523       53.43169
H        103.79269       71.67632       53.87386
H        103.12461       71.93710       52.23512
H        103.58818       69.16335       53.43681
Ca        96.24849       83.50192       44.01643
O         95.45057       86.35109       45.32688
H         94.48846       86.24941       45.53709
H         95.86355       86.64639       46.17660
O         99.03205       83.14628       43.37717
H         99.07209       82.37617       43.99471
H         99.75619       83.74867       43.67845
O         95.09132       86.45980       42.34632
H         94.53823       86.00761       41.66181
H         94.48266       87.12953       42.74689
O         97.20406       84.11482       41.35942
H         96.64794       84.06427       40.54419
H         98.07533       84.45574       41.04129
O         98.32990       85.96516       44.23372
H         98.92947       85.92328       45.02093
H         98.69910       86.69438       43.67636

Ca 1.70



