%chk=loop3.cluster176.chk
%nprocshared=48
%mem=10GB
%nosave
#b3lyp/svp scf=(tight,noincore) Test 
#IOP(5/87=12) Density=Current Pop=(MK,readradii) iop(6/33=2) iop(6/42=6)

loop3.cluster176 

   0  1 
C         38.78752      105.79962       10.65352
C         37.77116      106.55198        9.85336
O         36.62110      106.13604        9.81376
H         39.74853      106.35197       10.70768
H         38.41029      105.62871       11.68311
H         38.96576      104.82015       10.16210
N         38.13485      107.64845        9.12941
C         37.17887      108.33758        8.26929
C         36.13465      109.06421        9.10917
O         36.32792      109.22276       10.30655
C         37.90228      109.30439        7.30409
C         38.95793      108.62377        6.45735
O         39.13803      107.28754        6.50771
O         39.66551      109.29392        5.72301
H         39.12462      107.94139        9.12825
H         36.66821      107.56533        7.64952
H         38.39443      110.10080        7.90093
H         37.16777      109.77956        6.61699
N         34.96460      109.46823        8.53183
C         33.81933      110.05991        9.23598
C         33.95360      111.48691        9.73778
O         32.91574      112.07477       10.01744
C         33.31099      109.17968       10.40751
C         32.68621      107.88693        9.90160
C         32.13003      107.04348       11.05263
C         31.29213      105.89560       10.48047
N         30.87798      104.96426       11.52531
H         34.83220      109.25367        7.53168
H         33.00263      110.13170        8.48336
H         32.50794      109.72321       10.95363
H         34.11321      108.97914       11.14937
H         33.43098      107.28797        9.33307
H         31.85221      108.16928        9.22381
H         31.47805      107.65614       11.71604
H         32.98139      106.65584       11.65479
H         31.88438      105.34322        9.71970
H         30.39089      106.32374        9.98256
H         30.32366      104.19434       11.08576
H         31.72379      104.55127       11.98128
H         30.28794      105.45024       12.23857
N         35.14729      112.08803        9.99112
C         35.19684      113.28727       10.81795
C         36.36295      114.15214       10.40678
O         37.41210      114.10478       11.03339
C         35.26198      112.79773       12.27872
C         35.24340      113.79114       13.39991
O         34.95143      115.09156       13.24748
O         35.44644      113.37745       14.52911
H         36.01909      111.56281        9.85206
H         34.27304      113.90036       10.71554
H         36.17860      112.18514       12.39272
H         34.38458      112.14147       12.47136
N         36.22588      115.00977        9.35847
C         37.24220      115.98609        9.01759
C         37.33585      117.00260       10.12658
O         36.33264      117.62426       10.44174
H         35.34515      115.01377        8.82236
H         36.93815      116.52401        8.09543
H         38.21284      115.47926        8.82007
N         38.51764      117.22785       10.75968
C         38.66223      118.13108       11.89734
C         39.44447      119.38705       11.53818
O         39.57541      120.24520       12.39623
C         39.34163      117.34989       13.03999
C         38.39962      116.35590       13.65909
N         38.57573      115.02375       13.50620
O         37.46738      116.76831       14.32385
H         39.35816      116.73237       10.42513
H         37.67603      118.51195       12.24654
H         39.67318      118.02274       13.85946
H         40.23843      116.84103       12.62755
H         39.34203      114.65567       12.92639
H         37.92303      114.36021       13.94931
N         39.92243      119.60615       10.27641
C         40.54365      120.85854        9.86609
C         41.84010      121.16142       10.58357
O         42.76442      120.36282       10.53930
H         39.78188      118.89392        9.54875
H         39.81279      121.68331       10.02210
H         40.76305      120.80868        8.78090
N         41.96091      122.33138       11.27109
C         43.11915      122.72521       12.06254
C         43.43761      121.67455       13.11595
O         44.60711      121.42015       13.36195
C         44.38205      123.06831       11.23469
C         44.15902      123.86362        9.97335
C         44.57716      123.30899        8.75281
C         43.57977      125.14527        9.98498
C         44.42490      124.01352        7.56299
C         43.42490      125.85245        8.78245
C         43.85106      125.28518        7.56886
O         43.71838      125.95386        6.40578
H         41.15121      122.97069       11.29074
H         42.81850      123.65999       12.58876
H         44.87874      122.11583       10.95404
H         45.09271      123.62330       11.89014
H         45.03397      122.32764        8.72582
H         43.25604      125.59673       10.91487
H         44.76072      123.56863        6.63525
H         42.98088      126.84017        8.79170
H         43.33343      126.83989        6.36673
N         42.42351      120.99710       13.74163
C         42.57944      120.08357       14.87244
C         42.76110      120.94808       16.11567
O         41.87589      120.94594       16.95662
C         43.56065      118.89080       14.58552
C         42.92182      117.98246       13.49138
C         43.83899      118.07392       15.86181
C         43.89352      117.04769       12.77160
H         41.46468      121.18566       13.43770
H         41.59165      119.59427       15.04132
H         44.53582      119.27090       14.22811
H         42.48157      118.61325       12.69294
H         42.09864      117.38515       13.94269
H         42.89206      117.69462       16.30222
H         44.50411      117.20914       15.65307
H         44.34726      118.70892       16.61802
H         44.68367      117.64867       12.27352
H         44.35686      116.30734       13.45291
H         43.33882      116.49609       11.97881
N         43.82486      121.78551       16.25474
C         43.95257      122.75433       17.34094
C         43.92055      122.07202       18.67790
O         43.16634      122.49052       19.54890
C         45.28698      123.50238       17.19826
O         45.26423      124.29692       16.04481
H         44.57439      121.75364       15.56451
H         43.12671      123.50392       17.29516
H         46.10926      122.75323       17.12748
H         45.45227      124.15095       18.08639
H         46.18668      124.64558       15.93445
N         44.70160      120.97825       18.89340
C         44.76918      120.24268       20.14267
C         43.39322      120.00271       20.75095
O         43.19678      120.28343       21.92245
C         45.73449      120.95903       21.09632
H         45.26430      120.62260       18.10476
H         45.21607      119.25256       19.91453
H         46.72402      121.06848       20.60068
H         45.36039      121.97235       21.35776
H         45.87450      120.36651       22.02394
N         42.37528      119.53504       19.96725
C         41.01354      119.38248       20.47650
C         40.49868      117.96207       20.27708
O         41.07211      117.20619       19.51077
C         40.11478      120.41503       19.78785
H         42.55431      119.34958       18.97166
H         40.98446      119.58971       21.56624
H         40.50002      121.43846       19.99893
H         40.11755      120.26647       18.68835
H         39.07011      120.35546       20.15484
N         39.42531      117.53175       21.01445
C         38.86225      116.17464       20.94502
C         39.85377      115.10340       21.38693
O         39.60334      113.92709       21.14362
C         38.22375      115.88551       19.56004
C         37.16843      116.95490       19.22806
C         36.64433      116.86499       17.82564
O         35.79155      115.89925       17.44456
O         36.95939      117.72295       17.02016
H         38.99223      118.18990       21.67499
H         38.02332      116.11493       21.67276
H         37.73380      114.88444       19.56688
H         39.01104      115.87690       18.77777
H         37.65995      117.94510       19.30944
H         36.32626      116.93113       19.95458
N         40.96794      115.41872       22.10888
C         41.88894      114.40785       22.58001
H         42.73357      114.88951       23.11754
H         41.37487      113.71618       23.28268
H         42.29587      113.83303       21.72190
H         41.16376      116.40024       22.35721
Ca        35.09433      116.05227       15.28917
O         32.81048      114.66591       16.14195
H         31.92471      115.07992       16.29377
H         32.90394      113.99012       16.85884
O         33.25953      117.70177       17.40016
H         32.89787      117.50011       18.29872
H         33.28097      118.68993       17.36492
O         34.94328      119.85437       15.73112
H         35.70840      120.14887       15.17788
H         35.36163      119.47397       16.54155
O         35.22412      118.25062       13.27710
H         34.96577      119.04416       12.74691
H         35.29259      117.52028       12.61574
O         32.49665      117.44487       14.03972
H         31.62311      117.15422       13.67626
H         32.41637      118.42799       14.12768

Ca 1.70



