%chk=loop4.cluster41.chk
%nprocshared=48
%mem=10GB
%nosave
#b3lyp/svp scf=(tight,noincore) Test 
#IOP(5/87=12) Density=Current Pop=(MK,readradii) iop(6/33=2) iop(6/42=6)

loop4.cluster41 

   -3  1 
C         79.54316       34.98401       68.33637
C         80.65517       34.39610       69.16128
O         81.78999       34.35370       68.70679
H         78.62019       35.11473       68.94420
H         79.83139       35.98541       67.95263
H         79.30702       34.31326       67.48763
N         80.38888       33.92353       70.40897
C         81.37710       33.39934       71.34350
C         82.39734       34.46444       71.71891
O         83.56338       34.15722       71.89483
C         82.08597       32.10051       70.88520
C         81.20411       31.01996       70.33968
O         81.71667       30.06657       69.77545
O         79.86754       31.12930       70.36203
H         79.41059       33.96438       70.74088
H         80.81260       33.15912       72.27332
H         82.67149       31.67811       71.73185
H         82.79073       32.36922       70.07490
N         81.96684       35.73307       71.96521
C         82.78380       36.69606       72.68579
C         82.11088       36.77783       74.04524
O         80.94544       37.13478       74.09211
C         82.83264       38.08735       71.97303
C         83.53452       38.03291       70.58869
C         83.47814       39.15556       72.88044
C         85.03720       37.71990       70.61296
H         80.98143       35.96988       71.79362
H         83.81717       36.33494       72.78961
H         81.78751       38.41921       71.78368
H         83.41489       39.01777       70.08179
H         83.01905       37.27400       69.96513
H         84.49493       38.84933       73.20370
H         83.54005       40.13320       72.35738
H         82.85902       39.31109       73.79042
H         85.60796       38.54993       71.08203
H         85.25830       36.77570       71.14660
H         85.40003       37.60917       69.56865
N         82.74211       36.44116       75.20783
C         84.13957       36.04265       75.31734
C         84.37974       34.57689       74.98830
O         85.51389       34.22000       74.71273
C         84.63630       36.30116       76.74849
C         84.63366       37.77475       77.04676
O         85.66047       38.42162       76.91730
O         83.48775       38.40196       77.37381
H         82.19259       36.53400       76.07729
H         84.77764       36.67783       74.66135
H         85.67603       35.92447       76.85427
H         84.00731       35.75815       77.48990
N         83.38579       33.65337       75.13754
C         83.58829       32.22334       74.94806
C         84.76280       31.68178       75.73715
O         84.83366       31.87971       76.94207
H         82.45103       33.96484       75.43039
H         83.73512       32.00598       73.87074
H         82.66693       31.69436       75.27446
N         85.71232       30.94592       75.09080
C         86.88521       30.37134       75.73945
C         88.14857       30.74943       74.96951
O         89.08939       29.96767       74.93253
C         86.67947       28.83797       75.88330
C         86.43201       28.06487       74.60565
O         86.48396       28.60507       73.51350
O         86.13006       26.75505       74.67715
H         85.57996       30.75966       74.08746
H         86.99878       30.76485       76.77427
H         85.78629       28.69059       76.52862
H         87.54777       28.38148       76.40602
N         88.23366       31.95161       74.32055
C         89.39106       32.35585       73.53204
C         89.60283       31.54179       72.25981
O         90.58364       31.77819       71.57272
H         87.45321       32.61733       74.39858
H         90.29885       32.29421       74.16944
H         89.26199       33.41610       73.22261
N         88.71300       30.58163       71.87659
C         88.88820       29.70889       70.71949
C         88.94564       30.46533       69.40669
O         89.84272       30.24154       68.60069
C         90.05637       28.71899       70.91820
C         89.82744       27.86385       72.17624
C         90.73809       26.66981       72.28066
N         90.45640       25.69749       73.17833
O         91.70034       26.54954       71.53598
H         87.86062       30.43932       72.42865
H         87.96521       29.08815       70.64811
H         91.03918       29.23658       70.96444
H         90.05713       28.03749       70.03827
H         88.79375       27.46419       72.12512
H         89.92023       28.47892       73.09525
H         89.62270       25.77157       73.78124
H         91.04388       24.85349       73.23860
N         87.95516       31.34283       69.10229
C         87.82664       31.98650       67.79666
C         87.61351       30.94841       66.70487
O         86.90879       29.97177       66.92401
C         86.67631       33.03653       67.77837
C         85.29960       32.45029       68.15379
C         87.03022       34.22525       68.68470
H         87.25572       31.53528       69.83284
H         88.76728       32.53920       67.56864
H         86.58488       33.44733       66.74731
H         84.99443       31.67360       67.42347
H         85.28205       32.00641       69.16823
H         84.53105       33.25038       68.13429
H         87.93725       34.73429       68.29012
H         86.20415       34.96702       68.69120
H         87.23098       33.90356       69.72713
N         88.17053       31.13956       65.47660
C         88.03140       30.20197       64.36956
C         87.21437       30.82289       63.27005
O         87.58277       31.88038       62.77614
C         89.43652       29.83004       63.84456
C         89.44217       29.06091       62.53538
N         88.57314       28.04870       62.30257
O         90.23492       29.38197       61.66191
H         88.70897       32.00411       65.31042
H         87.52316       29.26900       64.69632
H         89.95523       29.24206       64.62861
H         90.03010       30.75896       63.67861
H         87.86428       27.78378       62.99881
H         88.58512       27.55665       61.39651
N         86.09626       30.18982       62.80113
C         85.37827       30.69968       61.64566
C         83.95788       30.13293       61.61629
O         83.52899       29.59006       60.60655
C         86.19958       30.31295       60.38223
C         86.09259       31.32760       59.28899
C         86.77168       32.54803       59.43300
C         85.37032       31.06826       58.11770
C         86.72653       33.50308       58.42141
C         85.31078       32.03611       57.10910
C         85.99094       33.25685       57.25982
O         85.94404       34.19598       56.29504
H         85.78587       29.30814       63.23951
H         85.29087       31.80161       61.77536
H         85.93844       29.28067       60.05671
H         87.28765       30.25414       60.60823
H         87.35381       32.74729       60.32392
H         84.84916       30.12733       57.99170
H         87.26567       34.43426       58.54182
H         84.74116       31.83727       56.21122
H         85.43135       34.06646       55.48547
N         83.20019       30.16465       62.75174
C         81.92895       29.45552       62.86797
C         80.76923       30.21087       62.20890
O         80.16487       29.63378       61.31545
C         81.70792       28.99756       64.32925
C         80.42739       28.17788       64.50821
C         80.38111       27.59306       65.89076
O         80.25411       26.38876       66.04302
O         80.49888       28.39134       66.96777
H         83.62012       30.56441       63.60480
H         82.03408       28.48208       62.33175
H         81.68865       29.83081       65.05177
H         82.58167       28.36466       64.60589
H         80.38548       27.35333       63.76276
H         79.55010       28.84101       64.35327
N         80.38630       31.48942       62.52692
C         81.02206       32.33245       63.53298
C         82.06156       33.23937       62.91296
O         82.23650       33.24360       61.70139
C         79.97006       33.19465       64.27655
C         78.85156       32.40103       64.95803
C         79.35047       31.46391       66.00936
O         78.53321       30.49981       66.46101
O         80.31589       31.77856       66.68934
H         79.62406       31.90939       61.97063
H         81.56821       31.72704       64.25994
H         79.49644       33.90260       63.56253
H         80.47224       33.80308       65.05888
H         78.23000       31.85787       64.21781
H         78.18941       33.13186       65.47500
N         82.81172       34.03757       63.72246
C         83.83816       34.91448       63.21344
H         84.64204       34.31694       62.73523
H         83.40523       35.63039       62.48406
H         84.27612       35.48904       64.05786
H         82.65475       34.01669       64.74042
Ca        78.80116       30.18161       68.64542
O         79.93475       27.44687       69.70361
H         79.95323       26.48228       69.48176
H         80.54061       27.53695       70.48128
O         77.42397       27.86426       67.40145
H         76.43606       27.89506       67.44461
H         77.62354       27.63967       66.45857
O         77.13213       28.93064       70.50650
H         76.62751       29.65253       70.05277
H         77.38706       29.31914       71.38029

Ca 1.70



