%chk=loop3.cluster125.chk
%nprocshared=48
%mem=10GB
%nosave
#b3lyp/svp scf=(tight,noincore) Test 
#IOP(5/87=12) Density=Current Pop=(MK,readradii) iop(6/33=2) iop(6/42=6)

loop3.cluster125 

   0  1 
C         83.21199       76.29122       25.85334
C         84.70764       76.31725       25.91807
O         85.28519       75.60456       26.72464
H         82.80034       76.61191       26.83225
H         82.83725       76.98668       25.07275
H         82.86107       75.26703       25.61409
N         85.40716       77.12461       25.07641
C         86.85709       77.22842       25.11681
C         87.31157       77.84921       26.43203
O         87.65569       77.11321       27.34093
C         87.42854       77.95244       23.85933
C         86.84917       79.30916       23.51777
O         85.69686       79.41518       23.12870
O         87.61914       80.41050       23.60073
H         84.88025       77.65989       24.38122
H         87.27386       76.19416       25.08031
H         87.25322       77.31601       22.96786
H         88.52444       78.05133       23.99682
N         87.27432       79.19450       26.62622
C         87.70491       79.85071       27.85432
C         89.23027       79.72273       28.00526
O         89.96692       80.33609       27.24521
C         87.19564       81.30493       27.77626
C         87.15932       82.01129       29.11483
C         86.43279       83.35788       28.99239
C         86.25013       83.94791       30.39146
N         85.76293       85.32274       30.34216
H         86.87885       79.77781       25.88740
H         87.17554       79.34636       28.69434
H         86.13280       81.25128       27.44374
H         87.75723       81.88355       27.00779
H         88.19196       82.16254       29.49539
H         86.59293       81.36980       29.82346
H         85.42725       83.23528       28.52367
H         87.03579       84.03251       28.34564
H         87.22865       83.93631       30.91518
H         85.53324       83.31239       30.96271
H         85.76582       85.70563       31.31512
H         86.40410       85.90396       29.75473
H         84.79116       85.35897       29.95876
N         89.75632       78.83062       28.89355
C         91.16845       78.39193       28.87966
C         91.58218       77.80274       27.51626
O         92.69038       78.05123       27.06562
C         91.47890       77.33762       29.99878
C         90.51608       76.17992       30.09618
O         90.69372       75.29047       30.91419
O         89.41659       76.18052       29.33311
H         89.09687       78.38162       29.54229
H         91.83687       79.25500       29.09000
H         91.45995       77.83784       30.98852
H         92.50821       76.94183       29.83996
N         90.74355       76.96621       26.84694
C         91.03323       76.26082       25.61293
C         91.17281       77.15725       24.40456
O         91.16099       78.37106       24.55157
H         89.84027       76.78262       27.24813
H         90.16049       75.60444       25.42922
H         91.92796       75.61947       25.74162
N         91.30292       76.64054       23.14326
C         91.26886       75.20327       22.83450
C         89.86359       74.64674       23.11957
O         88.92427       75.42390       23.05396
C         91.60707       75.02798       21.32802
C         91.80359       73.60457       20.86880
N         90.96657       73.04936       19.96053
O         92.74673       72.95631       21.29756
H         91.42863       77.30920       22.36611
H         92.05166       74.72197       23.45415
H         92.55481       75.56359       21.10244
H         90.80148       75.51218       20.73298
H         90.16774       73.58088       19.58549
H         91.11664       72.08167       19.63762
N         89.58831       73.33258       23.38460
C         90.56455       72.25996       23.43173
C         90.36476       71.32759       24.59763
O         89.51882       71.56333       25.44754
H         88.59628       73.06672       23.49378
H         91.60569       72.62236       23.44566
H         90.40549       71.63846       22.52840
N         91.13182       70.20775       24.67599
C         90.99449       69.21197       25.72660
C         92.09606       69.38507       26.72893
O         93.25916       69.44451       26.34163
C         91.13258       67.78798       25.15493
C         90.01314       67.36102       24.24817
C         88.70998       67.22220       24.75271
C         90.27307       67.04103       22.90628
C         87.68220       66.76007       23.92646
C         89.24288       66.58402       22.08069
C         87.94414       66.43744       22.59056
O         86.94588       65.98181       21.80730
H         91.86227       70.06368       23.96020
H         90.01579       69.29890       26.24973
H         91.15532       67.05984       25.99685
H         92.11083       67.71183       24.62895
H         88.49682       67.45062       25.78977
H         91.27420       67.13555       22.50366
H         86.68372       66.64169       24.32767
H         89.45639       66.33399       21.04924
H         87.09499       65.74294       20.88133
N         91.80551       69.38167       28.05984
C         92.83436       69.42072       29.08709
C         92.95964       68.06528       29.78502
O         93.97451       67.81978       30.41364
C         92.56799       70.62033       30.03148
C         91.39300       70.32263       31.00017
C         93.83629       71.06214       30.77164
C         90.95368       71.53894       31.80684
H         90.81671       69.29482       28.34233
H         93.81290       69.58625       28.58442
H         92.29399       71.47301       29.36901
H         91.66385       69.50357       31.70275
H         90.51775       69.98178       30.41858
H         94.65589       71.23606       30.04105
H         93.65757       72.03339       31.27809
H         94.16061       70.30864       31.51617
H         90.05456       71.27974       32.40398
H         91.75044       71.85566       32.50905
H         90.69915       72.37401       31.12100
N         91.96536       67.12570       29.67350
C         92.11599       65.75313       30.13798
C         91.20809       65.43782       31.31763
O         91.24805       64.30362       31.78876
C         91.81089       64.81844       28.94682
O         92.51804       65.19832       27.79374
H         91.08062       67.35728       29.21100
H         93.16072       65.56653       30.46773
H         90.72749       64.88864       28.70551
H         92.03185       63.75689       29.19359
H         93.48018       65.23144       28.02910
N         90.38583       66.37782       31.88045
C         89.62574       66.10982       33.09332
C         88.39108       66.99135       33.22787
O         88.52356       68.20594       33.30724
C         90.52002       66.35528       34.31558
H         90.38658       67.34088       31.51181
H         89.31101       65.04117       33.11248
H         90.86497       67.41296       34.33423
H         89.95513       66.15172       35.25140
H         91.41154       65.69548       34.29293
N         87.15746       66.41640       33.35920
C         85.95354       67.11875       33.81459
C         85.41234       68.22172       32.91368
O         84.42496       68.84575       33.28789
C         86.17653       67.62032       35.24666
H         87.08384       65.39203       33.26265
H         85.14215       66.36245       33.88225
H         85.21180       67.94313       35.69214
H         86.57373       66.78753       35.86750
H         86.89263       68.46673       35.28244
N         85.97122       68.51610       31.71115
C         85.41219       69.52775       30.82081
C         84.18350       69.01007       30.10837
O         83.34233       69.80706       29.71964
C         86.47209       69.93879       29.80140
C         87.66418       70.57224       30.51526
C         87.32888       71.95527       30.91628
O         87.44373       72.85502       29.94230
O         86.85935       72.23699       32.01087
H         86.79797       67.98812       31.39556
H         85.11908       70.42958       31.40691
H         86.06022       70.65996       29.05730
H         86.81660       69.04025       29.24880
H         88.45425       70.68994       29.74272
H         88.11276       69.97981       31.33627
N         84.02747       67.67261       29.89213
C         82.84445       67.10733       29.28211
H         82.08017       67.87358       29.03763
H         83.12785       66.56945       28.35439
H         82.39688       66.38606       29.99706
H         84.76973       67.02053       30.17970
Ca        87.61953       74.93895       29.45459
O         84.64372       74.01869       29.57786
H         84.37692       73.61583       30.44169
H         84.41657       73.33033       28.90414
O         86.90220       76.26057       31.53722
H         86.49362       75.85297       32.33871
H         86.76986       77.23574       31.61797
O         86.57945       72.73095       27.11058
H         85.70294       73.09300       26.83185
H         86.54388       71.77707       26.85080
O         85.19336       77.23072       28.99772
H         84.27428       76.86481       29.02360
H         85.15513       77.93455       28.30266
O         89.47619       74.09891       27.49432
H         89.13497       73.24137       27.14957
H         90.16734       73.84241       28.15403

Ca 1.70



