%chk=loop3.cluster182.chk
%nprocshared=48
%mem=10GB
%nosave
#b3lyp/svp scf=(tight,noincore) Test 
#IOP(5/87=12) Density=Current Pop=(MK,readradii) iop(6/33=2) iop(6/42=6)

loop3.cluster182 

   0  1 
C         97.54617      -19.27369       58.54455
C         97.18737      -20.48660       57.73735
O         96.59315      -20.34486       56.67679
H         98.31003      -18.67692       58.00421
H         96.64288      -18.65151       58.71337
H         97.95824      -19.56195       59.53535
N         97.56608      -21.72342       58.16218
C         97.26407      -22.94948       57.43676
C         96.75686      -23.97797       58.44343
O         97.38703      -24.18388       59.47584
C         98.52061      -23.40536       56.68799
C         98.24609      -24.46821       55.65135
O         97.44173      -25.51039       55.90757
O         98.68400      -24.33119       54.52045
H         98.15109      -21.79187       59.01044
H         96.49337      -22.75655       56.65444
H         99.29408      -23.69801       57.41451
H         98.91921      -22.53407       56.12140
N         95.57285      -24.60107       58.23511
C         94.87353      -25.38917       59.25193
C         95.57792      -26.70366       59.57487
O         95.60991      -27.08301       60.73395
C         93.40070      -25.58331       58.82706
C         92.70252      -24.22159       58.55252
C         92.42510      -23.34790       59.79120
C         92.17274      -21.89726       59.33580
N         91.56522      -21.08522       60.38593
H         95.11282      -24.43122       57.32928
H         94.84501      -24.80568       60.19686
H         92.82876      -26.15497       59.58925
H         93.40081      -26.16736       57.88267
H         91.73014      -24.39773       58.04697
H         93.29519      -23.62877       57.83380
H         93.27081      -23.31506       60.50916
H         91.54472      -23.77993       60.31373
H         91.50170      -21.88050       58.45078
H         93.15151      -21.45238       59.03356
H         91.47009      -20.10408       60.03488
H         90.60946      -21.45563       60.59400
H         92.14978      -21.08732       61.25190
N         96.23878      -27.39549       58.60280
C         97.10523      -28.54560       58.89955
C         98.57178      -28.21574       58.62155
O         99.41922      -29.07961       58.82469
C         96.63692      -29.80975       58.13093
C         96.60789      -29.72517       56.63093
O         96.99589      -28.61362       55.99047
O         96.23069      -30.68866       55.98473
H         96.19410      -27.04592       57.63861
H         97.05491      -28.80844       59.97638
H         95.61097      -30.06392       58.46819
H         97.30659      -30.65868       58.39250
N         98.95381      -26.98755       58.15980
C        100.31353      -26.63102       57.78582
C        100.79347      -27.24562       56.48295
O        101.75692      -26.74396       55.92406
H         98.25330      -26.24259       58.08476
H        101.03408      -26.81852       58.60849
H        100.32892      -25.54327       57.60706
N        100.21146      -28.35984       55.96178
C        100.71665      -29.02508       54.77832
C        100.44901      -28.20818       53.53159
O         99.39488      -27.60640       53.40455
C        100.11442      -30.44887       54.71231
C        100.61669      -31.26383       53.54937
N         99.74549      -31.91136       52.74194
O        101.81820      -31.36851       53.35373
H         99.43853      -28.80892       56.44984
H        101.81287      -29.17305       54.89563
H         99.00321      -30.41064       54.70596
H        100.42739      -30.97579       55.64168
H         98.73196      -31.87322       52.92472
H        100.08995      -32.47898       51.95409
N        101.35127      -28.23555       52.51942
C        101.10465      -27.62199       51.22254
C        102.06637      -28.21650       50.22794
O        102.75921      -27.49091       49.52979
H        102.19669      -28.81305       52.64818
H        101.19417      -26.51409       51.29017
H        100.08550      -27.88520       50.87776
N        102.21716      -29.57208       50.19891
C        103.28257      -30.23090       49.46826
C        102.97249      -30.28768       47.99380
O        101.86855      -30.65118       47.61318
C        103.51993      -31.63713       50.03752
C        104.80150      -32.26287       49.53466
C        104.78033      -33.15895       48.45660
C        106.02450      -31.98198       50.17410
C        105.96045      -33.77932       48.03239
C        107.20111      -32.61130       49.75469
C        107.17017      -33.51912       48.68655
O        108.29305      -34.15277       48.28984
H        101.64510      -30.14144       50.84205
H        104.22905      -29.67553       49.66036
H        102.64522      -32.29376       49.84508
H        103.61543      -31.55769       51.14370
H        103.84939      -33.37991       47.95154
H        106.06220      -31.29300       51.00959
H        105.93224      -34.47536       47.20422
H        108.13346      -32.40277       50.26616
H        109.13717      -34.02819       48.74747
N        103.95588      -29.98305       47.11329
C        103.84023      -29.91931       45.66456
C        103.41970      -31.19725       44.95389
O        102.79691      -32.07827       45.52364
C        103.06640      -28.66167       45.14934
C        103.69435      -27.39470       45.77499
C        101.54051      -28.70704       45.35863
C        103.17335      -26.08879       45.18812
H        104.88597      -29.76257       47.50135
H        104.88776      -29.76713       45.32285
H        103.22484      -28.61822       44.04942
H        104.79079      -27.42115       45.59437
H        103.52346      -27.38846       46.87302
H        101.05638      -27.88306       44.79202
H        101.11111      -29.65242       44.96540
H        101.26956      -28.58562       46.42563
H        102.09590      -25.94710       45.40691
H        103.73246      -25.24211       45.63796
H        103.33878      -26.08032       44.09445
N        103.70209      -31.27371       43.62496
C        103.18461      -32.29288       42.72081
C        104.21751      -32.77062       41.67935
O        103.94695      -33.75300       40.99748
C        102.00465      -31.62311       42.00337
O        102.43422      -30.41248       41.43175
H        104.16679      -30.45975       43.21436
H        102.81434      -33.17676       43.28802
H        101.22526      -31.41303       42.77429
H        101.57165      -32.27543       41.21946
H        101.68162      -29.76848       41.48065
N        105.36886      -32.07251       41.43569
C        106.35877      -32.38089       40.41067
C        105.80397      -32.57607       38.99283
O        106.06651      -33.61633       38.40678
C        107.25359      -33.53954       40.86584
H        105.56190      -31.21966       41.96823
H        107.04487      -31.50795       40.34802
H        108.09592      -33.65751       40.14820
H        107.69165      -33.29659       41.85785
H        106.69460      -34.49447       40.93534
N        105.09761      -31.61553       38.31885
C        104.59822      -30.36788       38.88794
C        105.22169      -29.15237       38.23118
O        105.83307      -29.30990       37.18301
C        103.09190      -30.34069       38.59801
H        104.86421      -31.80898       37.32984
H        104.80350      -30.32314       39.96073
H        102.59977      -31.23582       39.03005
H        102.60373      -29.43076       38.98528
H        102.92586      -30.37198       37.49609
N        105.09568      -27.88001       38.72688
C        104.58132      -27.49323       40.04858
C        105.69339      -26.71880       40.74605
O        106.12781      -27.12305       41.81627
C        103.30294      -26.63473       39.90999
C        102.72781      -26.18219       41.26625
C        101.49019      -25.35277       41.07062
O        100.29915      -25.79904       41.51347
O        101.56070      -24.26807       40.51430
H        105.46433      -27.12222       38.13471
H        104.31537      -28.37196       40.67034
H        102.52234      -27.24032       39.40554
H        103.50958      -25.74730       39.27798
H        103.46698      -25.56999       41.82585
H        102.47600      -27.07864       41.87520
N        106.23528      -25.61294       40.14986
C        107.37698      -24.89611       40.67917
H        108.20968      -24.97074       39.94588
H        107.11916      -23.82445       40.80692
H        107.73132      -25.30395       41.64751
H        105.85450      -25.28401       39.25124
Ca        96.87871      -26.73686       54.10666
O         95.70176      -24.24047       53.55282
H         95.96442      -23.32708       53.82772
H         95.29932      -24.13446       52.65525
O         94.41150      -26.51183       55.25707
H         93.85249      -27.22182       55.65849
H         93.79323      -25.76013       55.08010
O         97.29364      -26.53131       51.32020
H         97.86703      -27.31445       51.13094
H         96.90399      -26.28968       50.44436
O         96.26118      -29.25858       53.07533
H         96.79166      -29.97348       52.64533
H         95.71532      -29.72349       53.75595

Ca 1.70



