%chk=loop2.cluster210.chk
%nprocshared=48
%mem=10GB
%nosave
#b3lyp/svp scf=(tight,noincore) Test 
#IOP(5/87=12) Density=Current Pop=(MK,readradii) iop(6/33=2) iop(6/42=6)

loop2.cluster210 

   -2  1 
C          3.71782       10.51104       25.83206
C          3.99286       11.79720       26.55031
O          3.25308       12.75660       26.37810
H          2.84616       10.60889       25.15019
H          4.60832       10.21569       25.23928
H          3.49905        9.71992       26.57997
N          5.07002       11.88918       27.38114
C          5.36916       13.09836       28.14204
C          4.39031       13.28442       29.30352
O          4.38124       14.34658       29.91055
C          6.81748       13.02677       28.66044
C          7.26991       14.30504       29.30505
O          7.66474       14.30781       30.59189
O          7.29482       15.34194       28.66089
H          5.70115       11.07665       27.45786
H          5.29649       13.96175       27.44097
H          7.49552       12.82210       27.80308
H          6.90504       12.18358       29.38056
N          3.53731       12.28035       29.66536
C          2.49892       12.43238       30.67316
C          2.20087       11.08034       31.31867
O          1.91795       10.14056       30.58833
C          1.24009       12.94405       29.98860
H          3.56296       11.39124       29.14916
H          2.76861       13.21535       31.40194
H          0.38574       12.92095       30.69476
H          1.40200       13.99296       29.66207
H          1.00195       12.31796       29.10335
N          2.22442       10.87445       32.67007
C          2.52187       11.91836       33.64863
C          3.13406       11.30508       34.89082
O          3.10221       10.09287       35.02950
C          1.22228       12.71473       33.94478
C          1.44132       14.17766       34.21342
O          2.10959       14.59580       35.30025
O          0.98833       15.00335       33.43753
H          2.00040        9.92730       33.00699
H          3.33025       12.55051       33.24523
H          0.64938       12.24033       34.76255
H          0.55818       12.66323       33.05532
N          3.74112       12.07530       35.83543
C          4.30360       11.49095       37.03557
C          5.53895       10.65603       36.73006
O          6.16891       10.88299       35.70662
H          3.79932       13.09018       35.71421
H          3.49263       10.88856       37.49655
H          4.59547       12.28528       37.75190
N          5.93542        9.62517       37.53521
C          5.23610        9.24740       38.75721
C          4.27235        8.08870       38.48595
O          3.89335        7.38060       39.40903
C          6.27543        9.00354       39.86864
C          5.74546        9.07181       41.28255
N          6.60090        8.90905       42.31728
O          4.56742        9.31576       41.50247
H          6.73807        9.04828       37.23651
H          4.62199       10.09571       39.11453
H          7.03173        9.81652       39.80998
H          6.78792        8.03509       39.68741
H          7.59722        8.71193       42.14052
H          6.27067        8.99042       43.28988
N          3.73832        7.92682       37.23613
C          2.62828        7.04476       36.92941
C          1.39126        7.55396       37.62157
O          0.74555        6.81071       38.34067
H          4.07741        8.51223       36.46771
H          2.86492        5.99102       37.18763
H          2.42784        7.09813       35.83529
N          1.04246        8.86421       37.46283
C         -0.07052        9.49040       38.15596
C         -0.96047       10.07198       37.08138
O         -0.53422       10.97351       36.39158
C          0.50970       10.56459       39.10557
C         -0.54698       11.16240       40.03215
O          1.50964        9.96717       39.89199
H          1.61905        9.45864       36.85700
H         -0.62324        8.73650       38.75398
H          0.97099       11.36995       38.48351
H          2.04432       10.70271       40.29007
H         -0.97527       10.36263       40.67334
H         -0.06472       11.91692       40.69119
H         -1.35581       11.65667       39.45797
N         -2.15154        9.47997       36.79345
C         -2.83398        9.73428       35.52079
C         -4.34219        9.66842       35.68205
O         -4.83308        9.26464       36.71934
C         -2.32996        8.73880       34.43113
C         -1.00852        9.23434       33.79180
C         -2.16351        7.31672       35.00903
C         -0.52745        8.32307       32.66204
H         -2.44034        8.66653       37.34835
H         -2.65612       10.77773       35.18979
H         -3.08346        8.71683       33.61238
H         -0.19438        9.31901       34.54043
H         -1.18659       10.24716       33.36957
H         -3.06124        7.01091       35.58339
H         -2.00072        6.57257       34.20566
H         -1.28043        7.28531       35.68898
H         -0.19151        7.34681       33.06563
H         -1.33101        8.16056       31.91633
H          0.32994        8.78159       32.14170
N         -5.12902       10.17821       34.68130
C         -6.55946       10.36954       34.83665
C         -7.32049        9.82935       33.61746
O         -7.39216       10.50246       32.60307
C         -6.81973       11.88875       35.03321
C         -6.04424       12.48053       36.20261
O         -6.26917       12.07657       37.32979
O         -5.10281       13.44311       36.03723
H         -4.68669       10.56275       33.84809
H         -6.92030        9.84456       35.74612
H         -7.90379       12.05003       35.22376
H         -6.54840       12.42872       34.10445
N         -7.92930        8.60896       33.67925
C         -8.83928        8.07561       32.65061
C         -8.25341        8.00608       31.22594
O         -7.35290        7.21084       31.01648
C         -9.24063        6.64239       33.08528
C        -10.09140        5.92007       32.07490
C         -9.58968        4.77829       31.42218
C        -11.37873        6.38061       31.77123
C        -10.36845        4.11260       30.47450
C        -12.15684        5.70784       30.82530
C        -11.65190        4.57615       30.17649
H         -7.78756        8.05426       34.53651
H         -9.73747        8.71917       32.65497
H         -9.76169        6.66759       34.06640
H         -8.29716        6.06767       33.23221
H         -8.59346        4.41062       31.64053
H        -11.77519        7.25630       32.26879
H         -9.97544        3.23843       29.97085
H        -13.15092        6.06482       30.59471
H        -12.25466        4.05857       29.44273
N         -8.76083        8.74485       30.17055
C         -8.27556        8.63850       28.79245
C         -6.76569        8.78240       28.63039
O         -6.21197        8.31129       27.64812
C         -8.93492        9.84368       28.10154
C        -10.21725       10.06733       28.87892
C         -9.85300        9.68588       30.31397
H         -8.62134        7.65602       28.39998
H         -8.31452       10.74685       28.29527
H         -9.06214        9.73920       27.00063
H        -10.64186       11.09258       28.78139
H        -10.95698        9.33153       28.50024
H         -9.50230       10.54991       30.91463
H        -10.75613        9.22572       30.77201
N         -6.05779        9.48405       29.55350
C         -4.60968        9.67281       29.52901
C         -3.90267        8.32913       29.59715
O         -3.00762        8.07845       28.80141
C         -4.26364       10.60537       30.70203
C         -2.79402       11.03498       30.80443
C         -2.71738       12.23527       31.70375
O         -3.29556       12.17010       32.90303
O         -2.25026       13.29008       31.30741
H         -6.58331        9.90792       30.32812
H         -4.31118       10.20507       28.59811
H         -4.58828       10.14033       31.65858
H         -4.87720       11.52270       30.54558
H         -2.39334       11.32068       29.81263
H         -2.20526       10.19231       31.21186
N         -4.33200        7.37741       30.46870
C         -3.79800        6.03333       30.48821
H         -2.75602        6.04338       30.86282
H         -4.41929        5.39981       31.15922
H         -3.83744        5.58175       29.47173
H         -5.10641        7.59884       31.10029
Ca        -4.03485       13.87124       34.11761
O         -3.83806       16.62913       32.33331
H         -4.05646       17.50873       32.73241
H         -4.28521       16.63740       31.45031
O         -1.83291       13.79710       35.84622
H         -2.32896       13.71740       36.69787
H         -1.77326       12.87396       35.50111
O         -1.76068       16.52678       34.40908
H         -1.16403       15.73977       34.39871
H         -1.14573       17.29833       34.48185
O         -6.20796       14.60120       32.74191
H         -6.90177       15.30433       32.74172
H         -6.44729       13.98587       32.00492

Ca 1.70



