%chk=loop2.cluster184.chk
%nprocshared=48
%mem=10GB
%nosave
#b3lyp/svp scf=(tight,noincore) Test 
#IOP(5/87=12) Density=Current Pop=(MK,readradii) iop(6/33=2) iop(6/42=6)

loop2.cluster184 

   -2  1 
C         72.30119      104.60578       -4.49144
C         72.21176      106.10218       -4.44391
O         73.02436      106.73745       -3.78751
H         73.17655      104.23851       -3.91585
H         71.37672      104.16423       -4.06135
H         72.39975      104.27723       -5.54750
N         71.21256      106.73301       -5.11755
C         71.03396      108.18293       -5.11138
C         69.71632      108.51670       -5.78716
O         68.86533      109.14094       -5.17126
C         72.18843      108.91129       -5.84149
C         72.09240      110.39774       -5.62592
O         71.91001      111.14920       -6.56997
O         72.21682      110.90424       -4.38328
H         70.53371      106.14427       -5.62431
H         70.99947      108.52271       -4.05078
H         72.15988      108.67504       -6.92817
H         73.17873      108.59137       -5.46069
N         69.47794      108.07664       -7.05994
C         68.22118      108.25776       -7.77610
C         67.05983      107.58949       -7.04314
O         65.96307      108.13133       -7.01825
C         67.99483      109.74523       -8.08236
H         70.21541      107.53810       -7.53924
H         68.32283      107.73025       -8.74967
H         67.88959      110.33851       -7.15035
H         68.86845      110.13829       -8.64661
H         67.08512      109.88752       -8.70047
N         67.27297      106.41969       -6.36357
C         66.28242      105.74506       -5.52275
C         65.60767      106.74004       -4.60765
O         64.38510      106.79808       -4.54567
C         65.28638      104.91692       -6.35578
C         65.97021      103.93118       -7.26451
O         65.31108      103.31951       -8.08409
O         67.30098      103.72555       -7.19936
H         68.22553      106.03018       -6.35505
H         66.83442      105.02665       -4.87547
H         64.67079      105.60121       -6.97374
H         64.60710      104.34700       -5.67800
N         66.37521      107.60050       -3.88892
C         65.80605      108.59931       -3.01437
C         65.06836      107.93800       -1.88156
O         65.41682      106.82843       -1.50644
H         67.39901      107.55297       -3.97925
H         65.13710      109.27738       -3.59092
H         66.62557      109.22205       -2.59665
N         64.03601      108.58470       -1.27510
C         63.27322      108.04295       -0.15230
C         64.18456      107.71017        1.02363
O         64.16465      106.59444        1.52508
C         62.37760      106.87031       -0.61414
C         61.49281      107.32033       -1.75316
N         60.52480      108.24644       -1.55090
O         61.66386      106.85662       -2.87036
H         63.77091      109.51686       -1.62689
H         62.59088      108.84510        0.19817
H         61.73385      106.51160        0.22056
H         63.01099      106.01991       -0.94584
H         60.34967      108.62781       -0.60965
H         59.94154      108.57155       -2.33635
N         65.01323      108.67286        1.52108
C         65.89471      108.47039        2.66575
C         67.12571      107.63368        2.37443
O         67.98728      107.54228        3.23904
H         64.99326      109.60936        1.09033
H         65.32264      108.06609        3.52789
H         66.28688      109.46804        2.95792
N         67.29081      107.01270        1.17507
C         68.50015      106.32079        0.78094
C         68.23229      104.84332        0.71977
O         67.21876      104.42558        0.17249
C         68.96842      106.77665       -0.62351
C         68.99802      108.29600       -0.78309
O         70.25217      106.25096       -0.86107
H         66.53915      107.04095        0.49303
H         69.32570      106.53026        1.50009
H         68.24704      106.38462       -1.38044
H         70.35491      106.14419       -1.84204
H         67.97516      108.70815       -0.65378
H         69.67661      108.76462       -0.04284
H         69.33273      108.54966       -1.81172
N         69.17272      103.98720        1.18332
C         69.06651      102.53854        1.06003
C         68.81296      102.12605       -0.39061
O         69.17001      102.86148       -1.30391
C         70.33374      101.86891        1.63569
C         71.61238      102.42938        0.93534
C         70.37779      102.09076        3.16323
C         72.58291      101.34268        0.50532
H         70.02520      104.39560        1.59171
H         68.17969      102.20292        1.64469
H         70.23087      100.77656        1.45048
H         72.11979      103.19828        1.56195
H         71.33853      102.94715       -0.00656
H         69.45622      101.68032        3.63253
H         71.25866      101.59810        3.61682
H         70.41734      103.17225        3.42030
H         72.04715      100.60814       -0.13560
H         73.38838      101.80339       -0.10726
H         73.02548      100.83249        1.38176
N         68.00533      101.05714       -0.64777
C         67.28560      100.94513       -1.91025
C         65.93807      100.32043       -1.61150
O         65.88058       99.13900       -1.29704
C         68.07572      100.17904       -2.99194
C         67.49030      100.37383       -4.36945
O         68.12423       99.87340       -5.44111
O         66.49906      101.06835       -4.53907
H         67.66539      100.51289        0.16054
H         67.11333      101.98411       -2.27765
H         68.13887       99.09731       -2.74059
H         69.10939      100.58235       -3.03642
N         64.81894      101.09480       -1.58997
C         63.53860      100.61143       -1.08628
C         62.91564      101.71921       -0.24111
O         61.93226      102.30961       -0.67254
C         62.67067      100.15552       -2.28315
C         61.39713       99.45180       -1.85378
C         60.20000      100.16954       -1.68076
C         61.39495       98.05982       -1.64135
C         59.03269       99.51382       -1.28167
C         60.21831       97.40655       -1.25587
C         59.04066       98.13438       -1.07001
H         64.90081      102.09566       -1.83378
H         63.67588       99.71132       -0.44843
H         63.26846       99.42861       -2.87829
H         62.44764      100.99851       -2.97176
H         60.16388      101.23408       -1.85534
H         62.30094       97.48217       -1.77715
H         58.11935      100.07726       -1.14162
H         60.21946       96.33573       -1.09698
H         58.13253       97.62956       -0.76637
N         63.45083      102.12630        0.95295
C         64.60725      101.52703        1.59873
C         64.29350      100.16799        2.20486
O         65.06322       99.23920        1.98761
C         64.98146      102.58214        2.65659
C         63.66314      103.24933        3.01319
C         62.92661      103.26890        1.67245
H         65.48531      101.44330        0.92461
H         65.58254      102.20218        3.51180
H         65.57478      103.36989        2.14265
H         63.13155      102.59698        3.72228
H         63.73197      104.23148        3.52279
H         61.82901      103.20767        1.84496
H         63.17121      104.17875        1.08426
N         63.21437       99.98714        3.02323
C         62.93342       98.76251        3.75324
C         64.11785       98.34274        4.60969
O         64.66170       97.26627        4.40751
C         62.44127       97.64586        2.81428
C         61.14632       98.01240        2.06780
C         60.01743       98.36941        2.99979
O         59.64369       97.51413        3.97125
O         59.44143       99.43959        2.88291
H         62.54983      100.75413        3.15490
H         62.09958       98.96159        4.46054
H         62.23364       96.74463        3.43277
H         63.22662       97.38125        2.07531
H         60.83921       97.12619        1.47705
H         61.33354       98.85584        1.36690
N         64.55363       99.15721        5.61269
C         65.65873       98.80191        6.48440
H         66.45658       99.56767        6.39858
H         65.30332       98.76657        7.53598
H         66.09809       97.81206        6.23859
H         64.07573      100.05567        5.77706
Ca        67.50267      100.73883       -7.42215
O         67.73840      100.02700      -10.12612
H         68.64578       99.64882      -10.00699
H         67.22461       99.31329      -10.57957
O         64.86008      100.51438       -8.79086
H         64.54194      100.47127       -9.72640
H         64.26133      101.17112       -8.35740
O         66.53854       98.16793       -7.78740
H         65.58868       97.89198       -7.77504
H         66.94475       97.65939       -8.53267

Ca 1.70



