%chk=loop3.cluster32.chk
%nprocshared=48
%mem=10GB
%nosave
#b3lyp/svp scf=(tight,noincore) Test 
#IOP(5/87=12) Density=Current Pop=(MK,readradii) iop(6/33=2) iop(6/42=6)

loop3.cluster32 

   0  1 
C         60.78771       45.34560       40.32402
C         59.91666       44.92527       41.46014
O         59.94557       43.77116       41.84230
H         61.82878       45.01023       40.50422
H         60.39816       44.88536       39.39248
H         60.77973       46.44989       40.20911
N         59.08755       45.81661       42.04856
C         58.18891       45.43905       43.12119
C         57.18572       44.37140       42.63329
O         56.43231       44.63285       41.70780
C         57.52164       46.72602       43.63965
C         56.69410       46.47946       44.83413
O         56.15345       47.40465       45.40333
O         56.60265       45.22824       45.29360
H         59.09266       46.79299       41.71669
H         58.80201       45.02588       43.95253
H         56.91725       47.19661       42.84086
H         58.32743       47.42787       43.95866
N         57.16741       43.12821       43.20905
C         56.41283       41.97820       42.69246
C         55.04657       41.86678       43.33562
O         54.05858       41.75703       42.62066
C         57.24054       40.65945       42.89054
C         58.59450       40.67151       42.13601
C         58.37860       40.65170       40.60831
C         59.56599       41.18083       39.79334
N         59.11265       41.61303       38.46654
H         57.82228       42.95195       43.97607
H         56.19309       42.12745       41.62211
H         56.65816       39.77621       42.54821
H         57.44212       40.52940       43.97676
H         59.23669       39.81063       42.42590
H         59.13021       41.58342       42.45580
H         57.56380       41.33770       40.37218
H         58.05742       39.64457       40.26187
H         60.38867       40.43757       39.72489
H         59.97614       42.07195       40.28941
H         59.88152       42.12971       37.98402
H         58.81049       40.79358       37.89510
H         58.31110       42.28364       38.56002
N         54.91100       41.91657       44.68634
C         53.59922       41.94993       45.34146
C         52.97777       43.34887       45.35363
O         51.85831       43.48855       45.82679
C         53.64002       41.29135       46.74586
C         54.59661       41.89205       47.73758
O         54.65618       41.44513       48.86999
O         55.42785       42.86820       47.35566
H         55.76316       42.07475       45.23575
H         52.88961       41.32504       44.75411
H         53.92067       40.22343       46.62280
H         52.62081       41.33369       47.18292
N         53.61936       44.42014       44.80336
C         53.01302       45.73593       44.67692
C         52.61137       46.34377       45.99998
O         51.45964       46.72403       46.15215
H         54.55481       44.29731       44.40013
H         52.12590       45.67050       44.00998
H         53.74635       46.41436       44.18801
N         53.52583       46.49224       46.99628
C         53.22423       47.15084       48.26813
C         54.05955       48.41502       48.44995
O         54.07839       48.96871       49.54114
C         53.31737       46.14084       49.43576
C         54.61445       45.41414       49.64030
N         54.68718       44.43558       50.57213
O         55.59469       45.69547       48.97789
H         54.48085       46.14324       46.83725
H         52.17055       47.50123       48.29988
H         52.54577       45.36498       49.24521
H         53.06714       46.65278       50.38865
H         53.86477       44.20205       51.14699
H         55.55635       43.90618       50.71444
N         54.67242       48.99752       47.37753
C         55.32392       50.29146       47.43327
C         56.81205       50.22554       47.67766
O         57.42943       51.28197       47.68943
H         54.50682       48.60615       46.44581
H         54.82789       50.95070       48.17711
H         55.19539       50.77735       46.44098
N         57.47087       49.04482       47.89148
C         58.90854       49.01445       48.14847
C         59.59718       47.86634       47.44129
O         58.96628       46.84706       47.18985
C         59.16229       49.01943       49.66593
C         58.70356       47.77342       50.38770
C         57.45838       47.74512       51.03738
C         59.54325       46.64891       50.46089
C         57.05758       46.60690       51.74408
C         59.14516       45.51883       51.18161
C         57.89942       45.49303       51.82185
O         57.50640       44.40579       52.51644
H         56.93844       48.16449       47.94435
H         59.36921       49.95028       47.76027
H         58.61949       49.89945       50.07751
H         60.23610       49.19231       49.89236
H         56.79932       48.60276       50.99417
H         60.51266       46.65618       49.97802
H         56.09415       46.59266       52.23743
H         59.80676       44.66518       51.24892
H         58.06288       43.61664       52.58498
N         60.93286       47.93706       47.16829
C         61.67972       46.83299       46.57485
C         62.59214       46.24999       47.63901
O         63.10040       47.00435       48.46328
C         62.56413       47.29337       45.37111
C         61.83753       48.24647       44.39236
C         63.09203       46.05177       44.61177
C         62.80264       48.87136       43.37320
H         61.44815       48.79250       47.43196
H         60.97442       46.05768       46.21341
H         63.41876       47.86801       45.79451
H         61.40677       49.09897       44.95818
H         61.01110       47.71786       43.87145
H         62.23980       45.49333       44.16312
H         63.80047       46.31490       43.80599
H         63.64854       45.36977       45.27715
H         63.60370       49.43322       43.90360
H         63.27517       48.11437       42.71753
H         62.25442       49.57993       42.72046
N         62.88508       44.92049       47.66237
C         63.85507       44.33860       48.58298
C         64.92163       43.56676       47.83017
O         64.86276       43.48693       46.61221
C         63.13930       43.43440       49.59207
O         62.51004       42.37094       48.92777
H         62.41753       44.29880       46.98274
H         64.37245       45.13553       49.16153
H         62.38947       44.03439       50.15206
H         63.87919       43.05199       50.32982
H         62.48177       41.61221       49.56573
N         65.93824       42.96324       48.49869
C         66.99915       42.19834       47.85173
C         66.47347       41.01231       47.05476
O         66.99202       40.74288       45.98328
C         67.99591       41.71983       48.91040
H         65.96680       43.06631       49.52696
H         67.55852       42.85698       47.15030
H         68.43497       42.60623       49.41863
H         67.48935       41.08951       49.67301
H         68.82067       41.14025       48.44598
N         65.44253       40.25904       47.52582
C         64.89370       39.13516       46.76847
C         64.29515       39.60119       45.44365
O         64.45737       38.92148       44.43796
C         63.85659       38.40064       47.62841
H         65.02261       40.50121       48.43514
H         65.69613       38.39320       46.56443
H         63.01132       39.06414       47.90665
H         63.46747       37.50452       47.09925
H         64.35247       38.05111       48.56224
N         63.57642       40.75487       45.37883
C         62.93757       41.24371       44.15742
C         63.93694       41.76457       43.12133
O         63.77424       41.46168       41.94823
C         61.86916       42.30042       44.50818
C         60.79177       41.66755       45.42077
C         59.66216       42.58045       45.76588
O         58.60332       42.10460       46.14345
O         59.86606       43.90316       45.87127
H         63.44570       41.29105       46.25078
H         62.35981       40.41757       43.68489
H         61.38078       42.63743       43.57036
H         62.33529       43.17936       44.99364
H         61.22194       41.32134       46.38195
H         60.36595       40.77898       44.90550
N         65.00084       42.53966       43.48444
C         65.97037       43.06310       42.53641
H         66.96827       42.62296       42.74853
H         65.70632       42.84249       41.48136
H         66.04581       44.16623       42.65074
H         65.15746       42.74236       44.47230
Ca        57.03525       44.39348       47.29187
O         59.75413       43.81413       48.79419
H         60.64683       44.07061       48.47082
H         59.93059       43.05978       49.40924
O         57.48686       42.68111       49.79204
H         56.92828       42.05729       49.27537
H         57.93812       42.10120       50.45215

Ca 1.70



