%chk=loop4.cluster26.chk
%nprocshared=48
%mem=10GB
%nosave
#b3lyp/svp scf=(tight,noincore) Test 
#IOP(5/87=12) Density=Current Pop=(MK,readradii) iop(6/33=2) iop(6/42=6)

loop4.cluster26 

   -3  1 
C         59.38512       58.00808       45.37356
C         58.45934       58.58156       46.39573
O         57.34561       58.95720       46.05616
H         60.35727       57.73363       45.83574
H         58.93192       57.09905       44.93033
H         59.57333       58.76571       44.58570
N         58.87342       58.70141       47.68416
C         58.05616       59.30314       48.71315
C         58.38657       60.78723       48.78995
O         59.48533       61.16183       49.17472
C         58.33160       58.57768       50.03267
C         57.62448       59.14903       51.20351
O         56.66835       59.88979       51.06209
O         58.16175       58.96867       52.41642
H         59.83177       58.41184       47.92958
H         56.97475       59.16820       48.46737
H         59.41743       58.66947       50.24399
H         58.08344       57.49653       49.96060
N         57.46499       61.67993       48.35768
C         57.65218       63.12135       48.30521
C         57.42781       63.75722       49.67703
O         58.14099       64.69190       50.01465
C         56.66540       63.71526       47.24722
C         56.91081       63.06271       45.85265
C         56.86757       65.24501       47.11995
C         55.80280       63.35276       44.83061
H         56.62196       61.29544       47.93033
H         58.67600       63.35772       47.93346
H         55.62299       63.50071       47.57347
H         56.99726       61.95593       45.88842
H         57.88997       63.42499       45.47517
H         57.92373       65.46782       46.84830
H         56.22262       65.69125       46.33840
H         56.63005       65.76548       48.06856
H         55.10598       62.49278       44.77828
H         55.19677       64.24543       45.07659
H         56.24720       63.47779       43.82239
N         56.41537       63.33123       50.49687
C         56.06850       64.01259       51.74561
C         56.83471       63.49955       52.96736
O         56.81570       64.16236       53.99637
C         54.53248       64.05836       51.96319
C         53.75864       62.73699       52.08492
O         54.41919       61.77603       52.85672
O         53.46666       62.17274       50.84328
H         55.86778       62.51259       50.21870
H         56.37557       65.07721       51.64281
H         54.06147       64.62651       51.13143
H         54.33920       64.61972       52.89832
N         57.58758       62.36933       52.90270
C         58.44918       61.90120       53.97783
C         57.71924       61.19180       55.10344
O         58.08125       61.38566       56.25463
H         57.61918       61.85167       52.02004
H         59.10277       62.72112       54.35169
H         59.13298       61.14908       53.53359
N         56.75178       60.26766       54.82886
C         56.08095       59.46728       55.86010
C         56.58894       58.02546       55.86253
O         56.80453       57.47115       56.93216
C         54.53914       59.56909       55.75990
C         53.88097       59.06553       54.50681
O         52.54113       59.10403       54.41073
O         54.53203       58.62997       53.57933
H         56.49639       60.11581       53.84548
H         56.32080       59.87106       56.86824
H         54.24627       60.63430       55.87245
H         54.10217       58.99209       56.60141
N         56.91476       57.40691       54.69583
C         57.54667       56.10407       54.59195
C         56.87669       55.22522       53.55319
O         57.43778       54.19993       53.20215
H         56.77473       57.91553       53.82580
H         57.60750       55.57165       55.56513
H         58.58138       56.28616       54.23153
N         55.66796       55.56688       53.02227
C         54.97272       54.77371       52.02034
C         54.68340       55.61540       50.79993
O         54.75995       56.83311       50.85486
C         53.66306       54.26932       52.64751
C         53.94462       53.14371       53.64740
C         52.71772       52.87562       54.46889
N         52.70805       53.17924       55.78771
O         51.71640       52.41605       53.94036
H         55.18611       56.39986       53.36451
H         55.58919       53.91732       51.67470
H         52.94414       53.89530       51.88894
H         53.18409       55.13052       53.17388
H         54.77118       53.44453       54.32406
H         54.26926       52.22290       53.11083
H         53.53745       53.59877       56.23470
H         51.86123       53.02715       56.35281
N         54.33270       54.98962       49.64189
C         54.03922       55.71515       48.41872
C         52.56166       55.57900       48.18314
O         52.07432       54.46888       48.03281
C         54.88910       55.16945       47.23554
C         54.57287       55.90609       45.92340
C         56.38643       55.31064       47.54400
H         54.25485       53.96226       49.63186
H         54.27777       56.79437       48.53135
H         54.66791       54.08976       47.08002
H         54.77032       56.99003       46.03130
H         55.20450       55.51787       45.09607
H         53.51466       55.75271       45.63018
H         56.65497       54.70980       48.43789
H         56.99278       54.93823       46.69080
H         56.64829       56.37385       47.73310
N         51.78450       56.69841       48.14675
C         50.37398       56.64099       47.85465
C         50.20359       56.73951       46.36492
O         51.17224       56.86523       45.63992
C         49.52832       57.66282       48.67485
C         49.18261       58.98157       48.00184
N         50.04853       60.01268       47.97094
O         48.06881       59.12671       47.52040
H         52.22565       57.60584       48.17257
H         50.00476       55.63900       48.16289
H         49.91532       57.80373       49.70681
H         48.54250       57.16819       48.80535
H         50.95389       59.93956       48.43222
H         49.78409       60.90341       47.52252
N         48.96682       56.63181       45.84838
C         48.72678       56.58237       44.42046
C         49.15551       57.85284       43.68679
O         49.76696       57.75287       42.62777
C         47.23837       56.28477       44.22244
C         46.97195       56.20815       42.76277
C         47.60841       55.23139       41.98066
C         46.15680       57.16992       42.16454
C         47.46330       55.24989       40.59846
C         46.01314       57.18839       40.78257
C         46.68238       56.23969       39.99259
O         46.59743       56.28818       38.65160
H         48.17707       56.52030       46.49583
H         49.31036       55.73399       44.00207
H         46.64832       57.09727       44.70277
H         46.97356       55.32339       44.71520
H         48.24483       54.48239       42.43980
H         45.66924       57.92723       42.76802
H         47.98310       54.51430       39.99907
H         45.40348       57.95528       40.32709
H         46.13628       57.01232       38.20676
N         48.84887       59.07960       44.17172
C         49.28433       60.32965       43.55093
C         50.80980       60.40560       43.49985
O         51.35185       60.78977       42.47558
C         48.65881       61.51175       44.31620
C         47.12997       61.50821       44.10921
C         46.45931       62.51175       44.99154
O         46.16334       62.18745       46.26514
O         46.11345       63.59254       44.54416
H         48.30893       59.12178       45.04880
H         48.91439       60.39917       42.50159
H         49.05048       62.48368       43.93909
H         48.91497       61.42952       45.39298
H         46.67077       60.51930       44.32354
H         46.91665       61.73011       43.03946
N         51.56158       59.98498       44.55762
C         53.02842       59.93105       44.50906
C         53.54270       58.93930       43.46942
O         54.66629       59.09474       43.00792
C         53.58381       59.57553       45.90057
C         53.33845       60.73327       46.87342
C         53.75258       60.39628       48.26828
O         54.61298       61.04421       48.81265
O         53.14773       59.42703       48.95711
H         51.07737       59.66545       45.40751
H         53.41177       60.93398       44.22472
H         54.67957       59.39671       45.85532
H         53.09058       58.64485       46.25350
H         52.27397       61.03159       46.88430
H         53.92550       61.60743       46.52602
N         52.78508       57.88662       43.06419
C         53.20600       56.96744       42.02997
H         54.17174       56.49340       42.29984
H         52.44015       56.17042       41.90459
H         53.30394       57.50619       41.06283
H         51.88200       57.72781       43.50909
Ca        54.02437       60.06431       51.41968
O         51.29592       59.23925       51.56972
H         50.87500       59.95071       52.11444
H         51.54905       58.53795       52.22047

Ca 1.70



