%chk=loop2.cluster98.chk
%nprocshared=48
%mem=10GB
%nosave
#b3lyp/svp scf=(tight,noincore) Test 
#IOP(5/87=12) Density=Current Pop=(MK,readradii) iop(6/33=2) iop(6/42=6)

loop2.cluster98 

   -2  1 
C         44.34008       77.50114       27.81091
C         43.88491       77.81558       29.20648
O         43.88869       78.97484       29.59007
H         45.29100       76.93077       27.85551
H         43.57403       76.89473       27.28238
H         44.50919       78.43507       27.23219
N         43.45328       76.81627       30.02556
C         43.01157       77.05852       31.39770
C         44.20659       77.36899       32.26699
O         44.16218       78.31048       33.04628
C         42.24717       75.84170       31.94517
C         41.70669       76.10400       33.32799
O         40.98703       77.06931       33.53516
O         42.00744       75.26864       34.33971
H         43.42900       75.85281       29.65613
H         42.28043       77.89646       31.40433
H         42.89450       74.93845       31.95620
H         41.38361       75.64956       31.27275
N         45.34772       76.63728       32.11944
C         46.60356       76.93266       32.78694
C         46.98557       78.40528       32.61459
O         47.33342       79.06927       33.57765
C         46.56983       76.41767       34.23030
H         45.35547       75.87931       31.41963
H         47.38688       76.33636       32.26976
H         45.80744       76.94489       34.83846
H         46.31633       75.33297       34.21449
H         47.56637       76.52021       34.70518
N         46.89143       78.97080       31.37303
C         47.23107       80.35814       31.04143
C         46.47785       81.36123       31.90403
O         47.09111       82.30666       32.37245
C         48.74626       80.62071       31.18420
C         49.62953       79.55958       30.62393
O         49.63964       79.29313       29.43139
O         50.43564       78.92642       31.49808
H         46.53405       78.38766       30.60328
H         46.94892       80.50900       29.97486
H         48.98669       80.65900       32.27187
H         49.00921       81.60941       30.74942
N         45.17907       81.17447       32.24948
C         44.50066       82.01713       33.22346
C         44.25201       83.42756       32.73616
O         43.94610       83.61905       31.57029
H         44.68181       80.35039       31.88738
H         45.07456       82.03510       34.17912
H         43.52074       81.56360       33.46590
N         44.29121       84.46101       33.62910
C         44.01582       85.86015       33.30833
C         42.62825       86.04601       32.71000
O         42.48162       86.78497       31.74233
C         45.13601       86.49028       32.45042
C         46.47852       86.44507       33.13948
N         47.12885       85.27384       33.27105
O         46.98825       87.47196       33.55907
H         44.50411       84.24628       34.61439
H         44.00741       86.42114       34.26780
H         44.88448       87.55540       32.25428
H         45.20633       85.96224       31.48195
H         46.71376       84.43716       32.86956
H         48.04585       85.21101       33.73517
N         41.55421       85.37896       33.23007
C         40.21265       85.53458       32.69020
C         39.84282       84.37284       31.80185
O         38.71237       83.91248       31.86493
H         41.70401       84.69361       33.98558
H         40.13283       86.45727       32.07853
H         39.48172       85.65390       33.52167
N         40.75635       83.86255       30.92190
C         40.45236       82.77513       29.99735
C         40.75667       83.20537       28.57590
O         41.46615       84.18185       28.37356
C         41.32126       81.52665       30.30320
C         41.17366       81.01239       31.73091
O         40.95415       80.48980       29.43094
H         41.70453       84.25583       30.90864
H         39.37776       82.50382       30.06620
H         42.39148       81.81165       30.14559
H         41.74455       79.91526       29.29898
H         40.13288       80.67687       31.91499
H         41.85834       80.14830       31.86866
H         41.45109       81.79272       32.46551
N         40.31123       82.44604       27.53489
C         40.76246       82.65961       26.16889
C         42.05425       81.92826       25.90584
O         42.52388       81.17540       26.75289
C         39.67341       82.30767       25.12072
C         39.06321       80.87854       25.22303
C         38.55956       83.35533       25.19747
C         40.08034       79.73637       25.17565
H         39.72909       81.62610       27.74102
H         41.03218       83.73087       26.03796
H         40.12832       82.40743       24.11114
H         38.37326       80.74865       24.36237
H         38.45777       80.76260       26.14703
H         38.99047       84.37271       25.06977
H         37.82331       83.19420       24.38400
H         38.04478       83.30899       26.18030
H         40.68718       79.71329       26.10099
H         39.55146       78.76237       25.12829
H         40.73997       79.83285       24.28762
N         42.74193       82.20227       24.76097
C         44.08031       81.70702       24.50819
C         45.05096       82.78788       24.98252
O         45.97871       83.14716       24.27466
C         44.20740       81.34554       23.00405
C         45.41036       80.53047       22.62096
O         45.58439       80.23483       21.44859
O         46.27346       80.08527       23.55287
H         42.36364       82.92168       24.13888
H         44.24628       80.79123       25.11776
H         44.21880       82.28517       22.41361
H         43.31694       80.75340       22.69748
N         44.85288       83.35332       26.21379
C         45.73319       84.33306       26.81598
C         45.80232       85.66076       26.05918
O         46.91872       86.01261       25.69057
C         45.34870       84.54549       28.29549
C         46.31335       85.49137       28.94014
C         45.92273       86.81148       29.20406
C         47.61636       85.07324       29.24914
C         46.82620       87.70603       29.77529
C         48.51551       85.96931       29.82959
C         48.12128       87.28557       30.09079
H         44.06566       83.04050       26.78467
H         46.75147       83.88443       26.83059
H         45.34921       83.57894       28.84883
H         44.32268       84.93930       28.38578
H         44.92203       87.14414       28.96100
H         47.92825       84.05505       29.04565
H         46.51933       88.72355       29.97407
H         49.51786       85.64422       30.07346
H         48.81888       87.98011       30.53635
N         44.72920       86.48194       25.77374
C         43.31310       86.27181       26.07486
C         42.54999       85.94339       24.78178
O         41.33751       86.12162       24.72858
C         42.91162       87.70370       26.53204
C         43.98616       88.66719       25.96230
C         44.91181       87.77617       25.15376
H         43.05004       85.50828       26.82016
H         41.86630       88.00256       26.29431
H         43.00159       87.76962       27.63771
H         43.60168       89.53175       25.37603
H         44.56761       89.06123       26.82574
H         44.50059       87.73043       24.12428
H         45.95637       88.15325       25.08370
N         43.23091       85.54946       23.67362
C         42.72309       85.68668       22.31570
C         41.78850       84.58791       21.83557
O         42.14979       83.42333       21.87747
C         43.95508       85.71484       21.38064
C         43.60886       85.94967       19.90714
C         43.03703       87.31924       19.68715
O         43.74320       88.30571       19.82292
O         41.74505       87.46504       19.33915
H         44.23991       85.36799       23.77617
H         42.22535       86.67860       22.22926
H         44.48307       84.73974       21.47347
H         44.65400       86.51169       21.72289
H         42.89196       85.17195       19.57294
H         44.52495       85.84189       19.29130
N         40.64404       84.91324       21.17579
C         39.88046       83.91232       20.46005
H         39.02080       84.38667       19.94203
H         40.52632       83.44327       19.68175
H         39.51495       83.12851       21.15324
H         40.35925       85.90065       21.09623
Ca        52.02498       77.43289       32.03378
O         50.57327       75.68603       30.64190
H         50.27752       75.81967       29.70807
H         50.84261       74.73619       30.70154
O         50.20895       77.47348       34.30001
H         49.96498       77.00626       35.13700
H         49.66703       78.30105       34.30698
O         53.82662       76.53703       34.30418
H         54.73166       76.13599       34.32023
H         53.48785       76.42866       35.22817
O         52.25906       79.78129       33.88885
H         51.67621       80.57858       33.95646
H         52.46963       79.54226       34.82613
O         54.24814       76.43180       30.85862
H         54.47316       75.47320       30.77030
H         55.11618       76.89758       30.94859
O         53.76623       79.43876       31.11049
H         54.60217       79.72335       31.55689
H         53.22702       80.26431       31.02572

Ca 1.70



