%chk=loop3.cluster40.chk
%nprocshared=48
%mem=10GB
%nosave
#b3lyp/svp scf=(tight,noincore) Test 
#IOP(5/87=12) Density=Current Pop=(MK,readradii) iop(6/33=2) iop(6/42=6)

loop3.cluster40 

   0  1 
C         61.35145       46.04916       35.01353
C         60.66528       45.21450       36.03958
O         61.29145       44.34611       36.61023
H         62.40280       45.71564       34.88818
H         60.81415       45.96157       34.04815
H         61.34640       47.10711       35.35292
N         59.36962       45.46269       36.35155
C         58.64025       44.77884       37.41637
C         58.35953       43.30883       37.05553
O         57.30814       42.99981       36.51108
C         57.36567       45.60006       37.65483
C         56.59551       45.26076       38.86743
O         55.57694       45.88422       39.08172
O         57.01930       44.33055       39.74196
H         58.90374       46.23599       35.84890
H         59.23393       44.84003       38.35833
H         56.69803       45.52484       36.77150
H         57.65279       46.66787       37.79290
N         59.31668       42.36495       37.28509
C         59.23977       40.96287       36.86504
C         58.18500       40.13644       37.58575
O         57.73745       39.14391       37.02790
C         60.60731       40.27218       37.09268
C         61.79283       40.92008       36.34851
C         61.58455       40.94018       34.83136
C         62.79764       41.52180       34.10262
N         62.50280       41.69109       32.67936
H         60.18078       42.68066       37.72547
H         58.98783       40.94085       35.78349
H         60.54192       39.20868       36.77858
H         60.83476       40.29484       38.18248
H         62.70997       40.34523       36.59635
H         61.96333       41.95543       36.70031
H         60.70620       41.57092       34.58814
H         61.40426       39.90444       34.46611
H         63.66130       40.83347       34.23723
H         63.06788       42.51331       34.53149
H         61.85063       42.50067       32.55587
H         63.38842       41.89010       32.16221
H         62.06132       40.82894       32.28446
N         57.75275       40.47913       38.82932
C         56.66812       39.78117       39.52331
C         55.39329       40.61230       39.47550
O         54.34688       40.10545       39.85877
C         57.06473       39.42401       40.97699
C         57.75209       40.56706       41.68480
O         58.89559       40.41501       42.07943
O         57.17410       41.78114       41.79476
H         58.14415       41.32344       39.26354
H         56.41212       38.83158       38.99763
H         57.78501       38.57560       40.94789
H         56.17216       39.07673       41.54195
N         55.38861       41.86964       38.94171
C         54.17566       42.62773       38.71136
C         53.47502       43.12187       39.95935
O         52.33936       43.55811       39.84259
H         56.26078       42.28013       38.60373
H         53.49096       41.99609       38.10617
H         54.41757       43.52301       38.10094
N         54.08862       43.13763       41.17944
C         53.39985       43.58086       42.39501
C         53.42253       45.09336       42.61820
O         52.80693       45.55842       43.56531
C         53.86583       42.75088       43.60143
C         55.30363       42.90425       44.01335
N         55.79785       42.08991       44.97193
O         56.02724       43.73477       43.48372
H         55.06246       42.82103       41.24950
H         52.32417       43.32115       42.28984
H         53.71486       41.68350       43.32862
H         53.22770       42.97835       44.48061
H         55.19318       41.38434       45.41765
H         56.78417       42.14191       45.24741
N         54.05678       45.91933       41.74410
C         53.91426       47.37069       41.75547
C         55.19849       48.13546       41.96474
O         55.13800       49.35973       41.94449
H         54.59034       45.49670       40.99477
H         53.18540       47.70074       42.52215
H         53.51231       47.67589       40.76279
N         56.39385       47.52015       42.19524
C         57.62872       48.28223       42.36989
C         58.77801       47.66663       41.60975
O         58.68248       46.52167       41.18014
C         57.94374       48.43292       43.87477
C         58.05419       47.10353       44.58081
C         56.97412       46.62384       45.34056
C         59.22518       46.33474       44.48544
C         57.05969       45.38832       45.98531
C         59.31338       45.10861       45.14643
C         58.23026       44.62921       45.89492
O         58.30679       43.44344       46.53067
H         56.42691       46.49172       42.28347
H         57.49937       49.30885       41.96080
H         57.09899       49.00581       44.31640
H         58.85723       49.04053       44.06151
H         56.06085       47.20058       45.41779
H         60.07291       46.68953       43.91445
H         56.21444       45.02036       46.55314
H         60.22405       44.53399       45.08066
H         59.08205       42.86991       46.45231
N         59.93481       48.36524       41.45670
C         61.13761       47.78835       40.88259
C         62.13874       47.66381       42.01737
O         62.40900       48.65216       42.69081
C         61.73192       48.65536       39.72885
C         60.68771       49.01724       38.64172
C         62.90730       47.87757       39.08995
C         61.22079       50.03945       37.62384
H         59.98360       49.32976       41.82656
H         60.92219       46.78044       40.45802
H         62.10047       49.60805       40.16999
H         59.80134       49.48861       39.11652
H         60.35272       48.09816       38.11370
H         62.53481       46.92963       38.64078
H         63.42966       48.44926       38.30203
H         63.67119       47.62593       39.84651
H         60.44341       50.25081       36.86099
H         61.47531       50.99333       38.13595
H         62.11766       49.67799       37.08394
N         62.75022       46.47857       42.26981
C         63.76000       46.30070       43.30334
C         65.14325       46.39302       42.69983
O         65.26290       46.66111       41.51801
C         63.55346       44.93185       43.97957
O         63.79924       43.89780       43.06656
H         62.55190       45.68978       41.64765
H         63.67552       47.09470       44.07538
H         62.50892       44.86697       44.34937
H         64.24962       44.82643       44.83764
H         63.59406       43.04816       43.53554
N         66.25003       46.18764       43.45590
C         67.58703       46.12461       42.88247
C         67.70239       44.88189       42.00970
O         68.11791       44.98110       40.86505
C         68.62288       46.08744       44.00513
H         66.13471       46.02982       44.46873
H         67.79550       47.04710       42.29119
H         68.47070       46.97223       44.66145
H         68.51692       45.16821       44.61758
H         69.64961       46.13882       43.58565
N         67.29235       43.67151       42.50144
C         67.32978       42.43402       41.72002
C         66.47741       42.48021       40.45809
O         66.65795       41.62413       39.60123
C         66.84127       41.26233       42.58166
H         66.93919       43.63220       43.46852
H         68.38710       42.25370       41.42469
H         66.88134       40.30760       42.01594
H         67.46988       41.16347       43.49111
H         65.78900       41.44227       42.89836
N         65.52752       43.43846       40.26970
C         64.77411       43.56740       39.02983
C         65.56413       44.46398       38.09848
O         65.91113       44.03720       37.00693
C         63.33715       44.06243       39.32098
C         62.56420       42.96959       40.09211
C         61.11171       43.20283       40.42451
O         60.29104       42.40721       40.00900
O         60.68870       44.13336       41.29799
H         65.37557       44.14548       41.00038
H         64.67217       42.58106       38.52246
H         62.82871       44.25267       38.36524
H         63.38637       45.01825       39.86208
H         63.08046       42.72477       41.03502
H         62.59075       42.05918       39.45210
N         65.95474       45.69944       38.50425
C         66.83243       46.53672       37.72166
H         67.79972       46.01323       37.56065
H         66.36283       46.78470       36.74978
H         67.04045       47.47706       38.27828
H         65.66192       46.03595       39.41739
Ca        58.56433       43.59370       41.90441
O         60.22851       42.46480       43.75629
H         61.10614       42.08910       44.00822
H         59.56356       41.78860       44.03689

Ca 1.70



