%chk=loop1.cluster137.chk
%nprocshared=48
%mem=10GB
%nosave
#b3lyp/svp scf=(tight,noincore) Test 
#IOP(5/87=12) Density=Current Pop=(MK,readradii) iop(6/33=2) iop(6/42=6)

loop1.cluster137 

   0  1 
C         43.44583       31.91817       30.50778
C         42.96500       31.53237       29.14938
O         43.42906       32.08695       28.16715
H         44.23551       32.69615       30.44791
H         42.59043       32.31024       31.09792
H         43.85379       31.01460       31.00398
N         42.00742       30.57427       29.03035
C         41.44980       30.15094       27.75294
C         39.98659       30.55356       27.67518
O         39.14427       29.73765       27.32552
C         41.70536       28.63845       27.51240
C         41.17939       27.68412       28.56197
O         40.53251       28.12367       29.65811
O         41.34707       26.48483       28.41293
H         41.64219       30.15887       29.89517
H         41.94968       30.68833       26.92095
H         42.79847       28.47420       27.43239
H         41.25822       28.34896       26.54270
N         39.62167       31.83149       27.99690
C         38.25863       32.32960       27.87281
C         38.27440       33.75007       27.30068
O         38.57809       34.65879       28.06172
C         37.59366       32.42957       29.27269
C         37.26403       31.11119       29.97920
C         36.19981       30.30682       29.22126
C         35.66715       29.15782       30.08281
N         34.60073       28.43743       29.38896
H         40.34037       32.47312       28.36017
H         37.67044       31.65308       27.23544
H         36.63621       32.99036       29.18039
H         38.25781       33.01846       29.94672
H         36.83906       31.39535       30.96895
H         38.17551       30.50207       30.15973
H         36.61813       29.90900       28.27333
H         35.34530       30.97694       28.98045
H         35.25655       29.57955       31.02783
H         36.49193       28.45661       30.33831
H         34.19981       27.71933       30.03418
H         33.83876       29.09936       29.11229
H         34.98143       27.96265       28.53887
N         37.93437       34.08671       26.01790
C         37.65913       33.19316       24.89279
C         36.37789       32.35983       25.10231
O         35.74493       32.52109       26.13640
C         38.94530       32.41852       24.46906
C         40.23080       33.15087       24.75379
O         41.21190       32.54586       25.44671
O         40.38981       34.29412       24.35878
H         37.94212       35.09474       25.79294
H         37.44937       33.86772       24.03170
H         38.93359       32.30575       23.36422
H         38.98886       31.41645       24.94171
N         35.88435       31.47818       24.17835
C         36.51321       31.22717       22.89673
C         35.76037       30.21928       22.04773
O         34.53902       30.26505       22.02775
H         35.01336       30.97460       24.40959
H         37.50991       30.84297       23.08653
H         36.57330       32.17691       22.32722
N         36.40353       29.33401       21.22160
C         37.86503       29.21749       21.12654
C         38.48919       28.71756       22.42525
O         37.78274       28.24376       23.30575
C         38.32652       28.38229       19.89461
C         37.45467       27.20208       19.54558
O         37.23697       26.21844       20.43639
O         36.91671       27.15266       18.44850
H         35.81301       28.75101       20.61064
H         38.28281       30.23684       20.96658
H         39.37701       28.04400       20.03062
H         38.32101       29.05352       19.00789
N         39.82786       28.89250       22.63407
C         40.47172       28.54524       23.89185
C         41.97614       28.73499       23.79923
O         42.70325       27.75300       23.79844
H         40.39708       29.30432       21.87854
H         40.25447       27.48135       24.11880
H         40.05827       29.17082       24.71575
N         42.50712       29.98565       23.70735
C         43.93250       30.24957       23.48227
C         44.70470       30.39604       24.77671
O         44.31015       31.18581       25.61996
C         44.08959       31.50734       22.59048
C         45.55483       31.92257       22.42505
O         43.37505       32.59552       23.12294
H         41.85680       30.78359       23.73921
H         44.38859       29.41288       22.90760
H         43.67764       31.22138       21.59244
H         42.88229       33.02234       22.37370
H         45.63975       32.71274       21.65176
H         45.94478       32.33719       23.38191
H         46.17481       31.05090       22.13270
N         45.88401       29.71862       24.96102
C         46.67841       29.88580       26.17357
C         48.17431       29.70713       25.88703
O         48.84802       28.91281       26.52698
C         46.05187       29.00193       27.28282
C         46.47118       29.47160       28.69005
C         46.27343       27.49892       27.02376
C         45.81319       28.65741       29.80158
H         46.24063       29.10543       24.21208
H         46.59095       30.95239       26.48483
H         44.95763       29.17736       27.22639
H         46.13093       30.52635       28.79464
H         47.57320       29.44975       28.82451
H         47.30448       27.18571       27.28179
H         45.56533       26.90020       27.63271
H         46.07997       27.25037       25.95830
H         44.72001       28.56369       29.62480
H         46.26739       27.64541       29.85097
H         45.97448       29.16359       30.77570
N         48.75656       30.50392       24.94761
C         50.19375       30.52298       24.65009
C         50.89495       31.71175       25.30664
O         52.11077       31.80848       25.19535
C         50.43832       30.67357       23.11059
C         49.57540       31.78370       22.46616
O         50.20636       29.46166       22.44437
H         48.15200       31.20279       24.49552
H         50.69916       29.61110       25.04197
H         51.51227       30.95712       22.98243
H         50.85324       29.42256       21.68934
H         48.54964       31.40359       22.27363
H         49.49160       32.67975       23.11839
H         49.99910       32.10388       21.49330
N         50.18755       32.69865       25.92377
C         50.73863       34.00748       26.26574
C         51.11654       34.75933       24.99923
O         51.55292       34.14548       24.03453
C         51.91856       34.04914       27.27372
C         51.71772       33.09199       28.45521
O         52.03607       35.38410       27.71968
H         49.17369       32.58401       26.05312
H         49.89644       34.55504       26.74399
H         52.86736       33.75806       26.76948
H         52.55330       35.41051       28.56547
H         50.76273       33.29948       28.97728
H         51.73285       32.04300       28.09354
H         52.55974       33.20279       29.17431
N         50.98208       36.11145       24.94402
C         51.43771       36.89175       23.80693
C         50.37051       37.53091       22.91027
O         50.75714       37.82716       21.78690
C         52.46661       37.94734       24.26092
C         53.72553       37.36662       24.93845
C         54.53654       36.36678       24.09076
C         55.02957       36.97383       22.76797
N         55.95614       36.07109       22.08551
H         50.62793       36.59160       25.76919
H         51.95940       36.21635       23.09644
H         51.97655       38.64041       24.98046
H         52.78727       38.55370       23.38867
H         53.44507       36.86781       25.88960
H         54.39136       38.22042       25.19590
H         53.95066       35.44478       23.89132
H         55.41851       36.06911       24.69792
H         55.55597       37.92826       22.98368
H         54.16675       37.18842       22.09856
H         55.46490       35.19642       21.79065
H         56.33708       36.55288       21.23916
H         56.75486       35.83300       22.71786
N         49.06353       37.83438       23.21019
C         48.32331       37.76536       24.46795
C         48.97166       38.56898       25.56052
O         49.16549       38.08220       26.66539
C         47.75571       36.36404       24.76823
C         46.68594       36.38530       25.89568
C         45.64899       35.30865       25.67781
O         44.93405       34.80888       26.69683
O         45.25762       35.08100       24.54464
H         48.53206       38.26658       22.43605
H         47.38976       38.34289       24.27057
H         48.49643       35.56899       24.95546
H         47.25053       36.10583       23.81225
H         46.11310       37.33845       25.85215
H         47.14973       36.35285       26.90762
N         49.25656       39.87647       25.31742
C         49.81817       40.75862       26.31189
H         50.74509       41.21596       25.90972
H         49.07903       41.55683       26.52921
H         50.06128       40.23094       27.25676
H         49.03209       40.27364       24.39157
Ca        43.09245       33.68830       25.97121
O         41.82586       34.79790       28.05354
H         40.90160       34.92693       27.73330
H         41.73808       34.37761       28.94311
O         42.33294       36.28263       25.36409
H         41.76978       36.69832       26.06331
H         42.94817       36.99863       25.07001

Ca 1.70



