%chk=loop1.cluster7.chk
%nprocshared=48
%mem=10GB
%nosave
#b3lyp/svp scf=(tight,noincore) Test 
#IOP(5/87=12) Density=Current Pop=(MK,readradii) iop(6/33=2) iop(6/42=6)

loop1.cluster7 

   0  1 
C         37.79104       86.69737      121.93128
C         37.99369       86.22152      123.34198
O         38.22519       85.04173      123.56214
H         36.95336       87.42789      121.89988
H         38.70907       87.21093      121.57356
H         37.54491       85.85298      121.25601
N         37.90384       87.11631      124.35993
C         38.09311       86.76875      125.76722
C         36.83961       86.21508      126.43116
O         36.82560       86.13588      127.65242
C         38.63071       87.99146      126.55483
C         37.67428       89.14524      126.67094
O         37.25763       89.55146      127.88632
O         37.31164       89.74947      125.67585
H         37.69721       88.09022      124.10943
H         38.89749       86.00638      125.85875
H         39.56353       88.35301      126.07598
H         38.88967       87.66037      127.58517
N         35.73725       85.84658      125.71202
C         34.50381       85.39143      126.34430
C         34.10977       84.03783      125.76526
O         33.75417       84.01468      124.59384
C         33.41347       86.45849      126.04759
C         33.79693       87.82209      126.66313
C         32.83697       88.95490      126.26153
C         33.19418       90.30357      126.92567
N         34.40772       90.90065      126.37083
H         35.74432       85.92801      124.68506
H         34.62243       85.31509      127.43876
H         32.42475       86.13608      126.44151
H         33.31992       86.57823      124.94294
H         34.81430       88.10123      126.33063
H         33.79873       87.71134      127.76936
H         31.81653       88.67167      126.59072
H         32.82584       89.08368      125.15554
H         33.31216       90.16162      128.02352
H         32.36003       91.01636      126.75820
H         34.30544       91.05837      125.34140
H         34.59623       91.81751      126.83735
H         35.21119       90.27802      126.55870
N         34.13892       82.84427      126.44881
C         34.61371       82.54597      127.81070
C         33.77023       83.13797      128.91565
O         32.95626       84.00576      128.63909
C         36.12471       82.82911      127.99176
C         36.86980       82.04620      126.97466
O         37.61365       82.60581      126.18357
O         36.61128       80.71938      126.89948
H         33.82840       82.01818      125.91394
H         34.47412       81.45108      127.91798
H         36.47353       82.48928      128.97572
H         36.36396       83.89466      127.93094
N         33.87238       82.72121      130.21879
C         34.67313       81.59529      130.71040
C         35.89513       82.09982      131.45852
O         35.74091       83.04034      132.22356
H         33.28758       83.20565      130.91670
H         34.88652       80.84528      129.93361
H         34.03321       81.04514      131.43388
N         37.15502       81.56852      131.31883
C         37.47277       80.29829      130.66111
C         38.94836       80.25433      130.27093
O         39.79283       80.47307      131.13108
C         37.24147       79.15365      131.68021
C         37.46537       77.78433      131.09574
O         36.66308       77.32024      130.30407
O         38.52251       77.04453      131.48363
H         37.90004       81.99805      131.88992
H         36.85394       80.13200      129.75861
H         36.21136       79.18189      132.09112
H         37.94501       79.29599      132.53073
N         39.33215       79.86788      129.01800
C         40.72130       79.58512      128.68777
C         41.19822       80.32843      127.46975
O         41.10851       81.55028      127.44266
H         38.61489       79.67330      128.31206
H         40.82809       78.48970      128.52466
H         41.39848       79.84759      129.52721
N         41.81713       79.65362      126.45439
C         42.45953       80.31380      125.32028
C         41.93645       79.77677      124.00424
O         41.90801       78.56649      123.79626
C         43.99544       80.21140      125.40459
C         44.54549       78.78382      125.48697
O         44.47416       80.97142      126.48640
H         41.90728       78.62591      126.53013
H         42.25021       81.40706      125.34430
H         44.39231       80.68051      124.47723
H         44.08765       80.59489      127.31968
H         44.19863       78.16445      124.63710
H         45.65331       78.82510      125.45375
H         44.23988       78.30254      126.43940
N         41.44055       80.64307      123.08336
C         40.67676       80.21668      121.92675
C         41.51596       79.47910      120.90065
O         42.33667       80.09050      120.22942
C         39.84397       81.39577      121.30871
C         39.06848       80.89527      120.06317
C         40.68240       82.65934      120.98723
C         37.95602       81.83690      119.60402
H         41.48949       81.64602      123.30811
H         39.90524       79.50318      122.29943
H         39.09392       81.69400      122.07664
H         38.57183       79.93383      120.30948
H         39.77728       80.71999      119.22435
H         40.06923       83.44618      120.51064
H         41.07118       83.14057      121.90604
H         41.53671       82.43067      120.32262
H         37.45199       81.39465      118.71984
H         37.20451       81.95361      120.41392
H         38.33936       82.83254      119.31026
N         41.28216       78.15407      120.67720
C         41.81742       77.42601      119.53251
C         40.67726       76.92165      118.63836
O         40.94862       76.29356      117.62686
C         42.73398       76.27187      120.01283
C         41.96100       75.09854      120.62894
O         43.65541       76.75274      120.95843
H         40.64160       77.65329      121.31424
H         42.44455       78.10477      118.91363
H         43.28943       75.85437      119.14201
H         44.18578       77.46566      120.51609
H         41.32413       74.61242      119.86026
H         42.67573       74.33262      120.99632
H         41.32199       75.42506      121.47368
N         39.36910       77.16955      118.96832
C         38.20560       76.71638      118.22130
C         38.02059       75.20978      118.30490
O         38.90054       74.49331      118.76215
C         38.15588       77.26815      116.77065
C         38.36035       78.78688      116.75866
O         36.90274       76.98261      116.20253
H         39.15172       77.72210      119.80411
H         37.32988       77.14898      118.75200
H         38.95038       76.78073      116.16455
H         36.93031       77.25904      115.25062
H         37.58942       79.28118      117.38684
H         39.36920       79.05061      117.13662
H         38.27261       79.16776      115.71972
N         36.81739       74.68761      117.95108
C         36.48357       73.28128      117.97085
C         35.54974       72.82808      119.10255
O         35.54909       71.62213      119.31197
C         35.81915       72.91568      116.61963
C         36.75093       72.95365      115.40540
C         37.72312       71.76317      115.41428
C         38.47900       71.59853      114.08836
N         39.28822       72.76905      113.75276
H         36.11046       75.32996      117.61506
H         37.40747       72.68172      118.12345
H         35.00206       73.64165      116.43712
H         35.34540       71.91127      116.65370
H         37.28657       73.92667      115.35835
H         36.11172       72.86459      114.49954
H         37.13704       70.82756      115.55921
H         38.44080       71.85726      116.25476
H         37.75023       71.40457      113.26983
H         39.13924       70.70675      114.17406
H         39.98799       72.95234      114.50729
H         39.78956       72.58245      112.85489
H         38.68186       73.60781      113.61156
N         34.69014       73.58841      119.86607
C         34.39301       75.02172      119.85931
C         33.92205       75.55968      118.51906
O         34.26096       76.67714      118.15178
C         35.42317       75.79635      120.71322
C         35.10677       77.29125      120.89991
C         35.73192       77.79795      122.16524
O         36.67794       78.56726      122.13047
O         35.21483       77.42305      123.35170
H         34.12980       73.05178      120.54811
H         33.46615       75.12086      120.46854
H         36.46302       75.68728      120.35802
H         35.39042       75.29656      121.70701
H         34.01512       77.47244      120.99218
H         35.47942       77.85680      120.01953
N         33.12507       74.79389      117.72423
C         32.65945       75.25559      116.43431
H         31.89826       76.05166      116.56900
H         33.50868       75.64516      115.83183
H         32.20322       74.40877      115.87878
H         32.88129       73.83728      118.02084
Ca        36.71662       79.18346      125.22255
O         39.05294       80.33053      124.67778
H         39.67604       81.07401      124.55689
H         38.60627       80.61695      125.49849
O         34.30237       79.03336      126.59131
H         33.89092       78.61343      127.38602
H         33.57104       79.53829      126.15631
O         36.05996       76.05409      125.78475
H         35.21213       75.55114      125.85896
H         36.65067       75.63675      126.46012
O         38.78034       77.39848      124.63033
H         39.68471       77.79358      124.60259
H         38.93171       76.42228      124.62348
O         35.12314       80.89848      123.95646
H         35.50240       81.71484      123.54750
H         34.27459       80.72789      123.47915
O         37.72049       77.71666      127.25569
H         38.51372       77.17342      127.48177
H         37.25174       77.86920      128.10876

Ca 1.70



