%chk=loop1.cluster133.chk
%nprocshared=48
%mem=10GB
%nosave
#b3lyp/svp scf=(tight,noincore) Test 
#IOP(5/87=12) Density=Current Pop=(MK,readradii) iop(6/33=2) iop(6/42=6)

loop1.cluster133 

   0  1 
C         46.64123       38.31695        6.37762
C         47.05646       37.70872        5.07627
O         48.05950       38.12808        4.53221
H         45.66938       37.90708        6.72212
H         47.41641       38.07440        7.13459
H         46.55321       39.41763        6.27472
N         46.34741       36.67050        4.55100
C         46.76294       35.88895        3.38501
C         46.30777       36.50652        2.07621
O         45.47804       35.93302        1.38323
C         46.35585       34.39414        3.54412
C         44.87787       34.10906        3.71410
O         44.29257       33.42698        2.88955
O         44.21347       34.52547        4.80938
H         45.56686       36.32765        5.11504
H         47.85847       35.89491        3.33066
H         46.88634       33.97062        4.42378
H         46.71597       33.84863        2.64562
N         46.83934       37.69616        1.67189
C         46.37888       38.44080        0.51054
C         47.56653       39.00680       -0.27479
O         47.91938       40.14850       -0.00794
C         45.51088       39.59993        1.08962
C         44.16656       39.08337        1.62866
C         43.20370       38.77840        0.46394
C         41.95398       38.01394        0.90558
N         42.25474       36.60141        1.16027
H         47.53310       38.15576        2.27058
H         45.75881       37.83137       -0.16066
H         45.30495       40.39026        0.33726
H         46.07894       40.07765        1.92351
H         43.68616       39.86177        2.26113
H         44.34310       38.21357        2.28856
H         43.66996       38.19273       -0.35166
H         42.91110       39.76009        0.03119
H         41.21462       38.06097        0.07667
H         41.50507       38.49320        1.80241
H         41.38003       36.11228        1.45400
H         42.60380       36.15098        0.28118
H         42.96769       36.48907        1.91343
N         48.23505       38.35182       -1.28897
C         47.96021       37.03009       -1.88858
C         46.62354       37.01119       -2.61201
O         45.92669       38.01417       -2.56468
C         48.19279       35.89284       -0.89179
C         49.55589       36.04869       -0.35441
O         50.52994       35.85455       -1.06548
O         49.72012       36.52784        0.87262
H         49.02479       38.86638       -1.71082
H         48.72087       36.89005       -2.68983
H         48.14349       34.87828       -1.31942
H         47.46025       35.93398       -0.08616
N         46.20556       35.97301       -3.39943
C         46.89354       34.69483       -3.57945
C         46.42442       33.99836       -4.85418
O         45.89620       34.67434       -5.72714
H         45.32085       36.11604       -3.90890
H         46.67300       34.06373       -2.69552
H         47.99259       34.83569       -3.68574
N         46.62693       32.66808       -5.10080
C         47.17729       31.71327       -4.13924
C         46.08544       31.32056       -3.13716
O         44.98139       31.83855       -3.21521
C         47.68721       30.46442       -4.91097
C         48.67160       29.57399       -4.18212
O         49.31503       30.00122       -3.07560
O         48.97744       28.49773       -4.66856
H         46.34020       32.30788       -6.02461
H         48.04807       32.18156       -3.63364
H         48.23727       30.79348       -5.81719
H         46.80637       29.87334       -5.24529
N         46.33634       30.39099       -2.17519
C         45.38818       30.04726       -1.13561
C         45.95770       30.34873        0.22501
O         45.21536       30.21911        1.19498
H         47.23188       29.91427       -2.15324
H         45.16245       28.95958       -1.18832
H         44.43652       30.60281       -1.25192
N         47.27430       30.68445        0.41207
C         47.83910       30.86603        1.72798
C         48.68061       32.12718        1.79935
O         48.92461       32.79283        0.79569
C         48.64958       29.59351        2.13301
C         47.79383       28.32945        1.99318
O         49.06188       29.68015        3.47166
H         47.93272       30.71823       -0.38014
H         47.02152       30.98871        2.47276
H         49.54191       29.50201        1.46896
H         49.82556       29.05783        3.59047
H         47.55086       28.13815        0.92751
H         48.34566       27.44868        2.38176
H         46.85194       28.44040        2.57264
N         49.15232       32.49767        3.00617
C         49.97496       33.65395        3.31443
C         51.18857       33.82463        2.35360
O         51.86253       34.93647        2.81878
C         50.29586       33.56868        4.86665
C         50.96153       34.78282        5.56786
C         51.09742       32.29831        5.21346
C         50.01818       35.96157        5.74305
H         48.84717       31.92048        3.79858
H         49.37386       34.54592        3.12098
H         49.31301       33.44553        5.37696
H         51.90233       35.09813        5.08485
H         51.23792       34.48653        6.60156
H         52.12487       32.34676        4.82005
H         51.12723       32.17634        6.31658
H         50.63724       31.37343        4.81974
H         50.53766       36.76982        6.30267
H         49.69289       36.33720        4.76216
H         49.12982       35.65292        6.33741
N         52.05470       32.62617        2.29507
C         53.46307       32.64017        1.79415
C         54.37595       33.02324        2.93231
O         55.06721       32.16003        3.44514
C         53.76556       33.36254        0.43991
C         55.26695       33.25084        0.08853
O         53.41787       34.71553        0.47682
H         51.52266       31.80390        1.93395
H         53.70305       31.57231        1.58104
H         53.16923       32.85281       -0.35108
H         53.36721       35.03129       -0.46470
H         55.47325       33.66934       -0.91956
H         55.88367       33.82422        0.81524
H         55.60364       32.19284        0.10481
N         54.39376       34.29825        3.39820
C         55.07341       34.78039        4.57807
C         56.52732       34.93126        4.26526
O         56.96560       34.50168        3.20375
C         54.69474       34.00293        5.88078
C         54.50211       34.91483        7.10094
O         55.65612       33.03406        6.20582
H         53.94665       35.02080        2.84595
H         54.68125       35.80837        4.71642
H         53.69242       33.54639        5.76023
H         55.46590       32.21914        5.68533
H         55.42834       35.43360        7.39777
H         53.71312       35.67211        6.89768
H         54.17056       34.30718        7.96980
N         57.33534       35.60384        5.11357
C         58.74909       35.69936        4.87984
C         59.22081       36.96870        4.16760
O         60.30401       36.87288        3.60734
C         59.54788       35.49787        6.18247
C         59.05286       34.36712        7.11479
C         58.99454       32.98449        6.45346
C         58.55681       31.89669        7.45028
N         58.51852       30.58893        6.79540
H         56.96125       35.91845        6.00559
H         59.04064       34.84169        4.22775
H         59.49666       36.43778        6.77101
H         60.61096       35.31989        5.90734
H         58.04557       34.62051        7.50995
H         59.74642       34.33059        7.98200
H         59.99760       32.72858        6.05500
H         58.26755       33.00336        5.61497
H         57.54826       32.13064        7.86045
H         59.27034       31.85758        8.30333
H         57.83005       30.60208        6.00788
H         59.46757       30.34824        6.42754
H         58.22919       29.85925        7.48615
N         58.62195       38.21425        4.15916
C         57.33699       38.71939        4.66326
C         57.00172       38.43716        6.12242
O         55.91823       37.94373        6.41091
C         56.19972       38.42417        3.67318
C         54.95374       39.29718        3.93472
C         53.81414       38.75734        3.15488
O         53.39465       37.50640        3.40560
O         53.26023       39.43339        2.30430
H         59.17735       38.94499        3.68539
H         57.42590       39.82840        4.61585
H         55.95664       37.35643        3.71856
H         56.53317       38.64311        2.63431
H         55.16739       40.35542        3.66658
H         54.62683       39.28047        4.99115
N         57.85647       38.80890        7.10899
C         57.50455       38.71203        8.51435
H         56.47150       38.33261        8.67890
H         58.21271       38.04152        9.03941
H         57.55529       39.72672        8.96170
H         58.76970       39.21198        6.85788
Ca        51.80444       36.66061        1.40970
O         52.76066       37.90941       -1.47486
H         52.00504       37.88769       -2.11399
H         53.55159       38.12061       -2.03092
O         50.73700       38.53986        3.21262
H         51.08228       37.93025        3.90909
H         49.84748       38.17695        2.99340
O         50.99088       39.42096        0.28764
H         50.95966       40.10905       -0.42280
H         50.13101       39.51308        0.76533
O         54.81054       37.32939        0.70224
H         55.21236       37.95325        0.04772
H         55.53891       36.70177        0.93650

Ca 1.70



