%chk=loop4.cluster104.chk
%nprocshared=48
%mem=10GB
%nosave
#b3lyp/svp scf=(tight,noincore) Test 
#IOP(5/87=12) Density=Current Pop=(MK,readradii) iop(6/33=2) iop(6/42=6)

loop4.cluster104 

   -3  1 
C         64.82194       22.35220       66.55398
C         64.99023       21.90015       67.98247
O         65.73437       22.52106       68.72638
H         64.35200       23.35810       66.52324
H         65.80767       22.39288       66.04671
H         64.17141       21.65443       65.98211
N         64.27960       20.83130       68.43935
C         64.32938       20.30085       69.80369
C         64.06888       21.36368       70.85048
O         64.75642       21.42118       71.86247
C         65.61063       19.49436       70.07788
C         65.83696       18.49959       68.98809
O         66.95779       18.60636       68.24546
O         64.98991       17.65764       68.73731
H         63.61823       20.37839       67.78967
H         63.48384       19.58075       69.87818
H         65.52164       18.96532       71.05270
H         66.48871       20.17285       70.11774
N         63.05444       22.24226       70.65968
C         62.62434       23.19335       71.67642
C         61.90935       22.37086       72.73714
O         61.05116       21.58719       72.35253
C         61.65889       24.22882       71.03229
C         62.39883       24.99372       69.89458
C         61.12797       25.20157       72.10044
C         61.53221       26.00612       69.15091
H         62.53018       22.18908       69.77337
H         63.50067       23.75472       72.06616
H         60.79116       23.68194       70.59798
H         62.76455       24.28014       69.12635
H         63.28585       25.51793       70.31109
H         60.63239       24.65260       72.92767
H         61.95796       25.80801       72.52040
H         60.36002       25.87402       71.67063
H         60.65347       25.50277       68.69551
H         61.19526       26.81721       69.82565
H         62.13562       26.47128       68.34271
N         62.19547       22.40471       74.06999
C         63.07367       23.34665       74.76543
C         64.44963       22.73957       75.00600
O         65.44006       23.35765       74.63704
C         62.38049       23.85002       76.06798
C         61.66189       22.80005       76.89265
O         60.45063       22.87216       77.03733
O         62.33160       21.78439       77.46489
H         61.70749       21.70601       74.64905
H         63.24317       24.26831       74.16634
H         61.60526       24.58717       75.76348
H         63.11447       24.38940       76.70547
N         64.58423       21.50108       75.55247
C         65.86258       20.81432       75.66697
C         66.61328       21.14191       76.93439
O         66.04857       20.99889       78.01094
H         63.73504       20.95771       75.74613
H         66.47632       20.96904       74.75343
H         65.64514       19.72941       75.73243
N         67.92170       21.53790       76.88316
C         68.71197       21.79814       78.08665
C         68.69280       23.28893       78.41708
O         69.07329       23.66548       79.51716
C         70.14752       21.24935       77.92850
C         70.16960       19.86772       77.32135
O         70.72101       19.68612       76.24611
O         69.56250       18.83713       77.93900
H         68.36637       21.67856       75.96359
H         68.23561       21.26676       78.94306
H         70.66535       21.23445       78.91343
H         70.71360       21.92446       77.25152
N         68.16725       24.18184       77.52329
C         67.82132       25.55359       77.84613
C         68.95383       26.54528       77.95877
O         68.66142       27.72684       78.07290
H         67.87252       23.85179       76.59495
H         67.18899       25.57026       78.75656
H         67.19512       25.92187       77.00424
N         70.26189       26.16859       77.88784
C         71.36783       27.12225       77.85757
C         71.23759       27.97057       76.60454
O         71.39046       29.18486       76.66686
C         71.47550       27.95015       79.17264
C         71.50353       27.02271       80.40127
C         71.69455       27.73235       81.71914
N         71.53699       27.04556       82.87505
O         71.98554       28.91934       81.75367
H         70.49907       25.17275       77.79455
H         72.30507       26.53229       77.76005
H         70.60990       28.64202       79.28349
H         72.39567       28.57402       79.13780
H         72.31346       26.27033       80.29428
H         70.52874       26.49224       80.44485
H         71.26139       26.05199       82.85757
H         71.66237       27.51309       83.78492
N         70.90246       27.37413       75.41731
C         70.61026       28.14294       74.20972
C         71.83692       28.25628       73.36480
O         72.81134       27.57689       73.66513
C         69.43961       27.52422       73.38215
C         69.81986       26.23022       72.62328
C         68.20819       27.26149       74.25294
H         70.77693       26.35025       75.39566
H         70.31553       29.17236       74.50891
H         69.15245       28.27957       72.62013
H         68.93438       25.81968       72.09217
H         70.59327       26.43590       71.85206
H         70.20933       25.44775       73.30796
H         67.32953       27.08851       73.59570
H         68.35549       26.35716       74.88137
H         67.99505       28.13127       74.90726
N         71.86722       29.03528       72.24405
C         73.04399       29.02339       71.39957
C         72.84869       29.53565       69.99017
O         71.81929       30.10890       69.64258
C         74.21851       29.80848       72.05764
C         75.51855       29.04489       71.99651
N         75.75542       28.03216       72.86311
O         76.37373       29.35624       71.18178
H         71.02279       29.56218       71.96466
H         73.29954       27.94562       71.26366
H         74.02106       30.05807       73.12041
H         74.32645       30.79646       71.55004
H         75.08228       27.80521       73.60257
H         76.63565       27.50190       72.82694
N         73.85636       29.31664       69.11543
C         73.90969       29.76185       67.73671
C         75.00982       28.97769       67.01232
O         75.96299       28.52873       67.64348
C         74.19522       31.29562       67.68912
C         74.52559       31.74957       66.28615
C         73.57547       31.62930       65.26137
C         75.81699       32.21879       65.98046
C         73.92890       31.91122       63.93950
C         76.16376       32.51085       64.65908
C         75.22505       32.33844       63.63166
O         75.56336       32.56740       62.34700
H         74.64034       28.75425       69.47281
H         72.94832       29.50829       67.23484
H         75.07341       31.49509       68.34492
H         73.34128       31.87772       68.09805
H         72.58074       31.26432       65.48230
H         76.56511       32.32404       66.75752
H         73.20218       31.77018       63.15083
H         77.16827       32.84603       64.43097
H         76.46204       32.82547       62.09673
N         74.96435       28.81301       65.66444
C         76.03464       28.16350       64.92730
C         75.97801       28.56053       63.44337
O         76.92075       29.20173       63.00209
C         76.07579       26.61971       65.17689
C         77.26620       25.94752       64.47855
C         78.56210       26.28410       65.15421
O         79.39163       26.97592       64.58748
O         78.82630       25.79029       66.37980
H         74.18179       29.22931       65.14360
H         76.99124       28.58561       65.31482
H         75.16655       26.12699       64.80360
H         76.10586       26.38285       66.26197
H         77.28017       26.25330       63.41091
H         77.15228       24.84250       64.50368
N         74.95471       28.23706       62.58415
C         73.75647       27.48892       62.95117
C         72.48570       28.22490       62.58350
O         72.53516       29.22198       61.87499
C         73.79889       26.08287       62.30849
C         73.58669       26.07218       60.78525
C         73.71966       24.67452       60.25611
O         74.81835       24.23901       59.95064
O         72.64467       23.86436       60.21200
H         75.05603       28.52393       61.59818
H         73.70746       27.36265       64.03883
H         73.00944       25.44931       62.76659
H         74.78361       25.62243       62.54419
H         74.31254       26.72877       60.26132
H         72.56517       26.44347       60.55048
N         71.29144       27.77044       63.05317
C         70.03296       28.39491       62.71059
H         69.28636       28.17611       63.50304
H         70.13460       29.49759       62.62640
H         69.66155       27.96899       61.75497
H         71.27770       26.96270       63.69422
Ca        67.46237       17.71208       66.22846
O         65.05641       16.39029       65.85692
H         65.33697       16.40610       66.80198
H         64.64980       15.49683       65.75886
O         69.56104       18.92678       64.18714
H         68.73092       18.81692       63.65865
H         70.28923       18.68655       63.56108
O         69.18136       15.64194       64.88273
H         69.98829       15.43221       65.41630
H         69.34577       15.21155       64.00780
O         67.61746       15.36614       67.70504
H         67.18791       14.71238       68.30904
H         68.36628       14.87356       67.28697
O         70.26178       17.37562       67.15920
H         70.99995       17.51258       66.51359
H         70.68790       17.44308       68.04926
O         68.96673       20.11073       67.00736
H         68.61132       20.79221       67.63111
H         69.86479       20.43825       66.75361

Ca 1.70



