%chk=loop1.cluster142.chk
%nprocshared=48
%mem=10GB
%nosave
#b3lyp/svp scf=(tight,noincore) Test 
#IOP(5/87=12) Density=Current Pop=(MK,readradii) iop(6/33=2) iop(6/42=6)

loop1.cluster142 

   0  1 
C         47.38443       39.10632        5.53432
C         47.43387       38.76012        4.07746
O         47.97932       39.52106        3.29716
H         46.32680       39.19579        5.85639
H         47.87303       38.30139        6.12304
H         47.91149       40.06295        5.73370
N         46.88963       37.59186        3.64703
C         46.95323       37.13590        2.25934
C         46.30521       38.11265        1.27140
O         45.08683       38.17658        1.20146
C         46.42504       35.67108        2.13106
C         45.03549       35.39242        2.67062
O         44.16856       34.96351        1.92766
O         44.77186       35.50204        3.98794
H         46.48150       36.98106        4.36304
H         48.01987       37.09842        1.98051
H         47.11792       35.00356        2.68509
H         46.45642       35.35859        1.07057
N         47.09912       38.92695        0.48564
C         46.57690       39.93572       -0.43977
C         47.45188       40.18696       -1.72317
O         47.77171       41.34944       -1.94119
C         46.52827       41.29253        0.33575
C         45.61356       41.36481        1.55415
C         44.13299       41.29863        1.17448
C         43.27928       41.42942        2.43667
N         41.85602       41.43660        2.11251
H         48.10386       38.94084        0.67593
H         45.55548       39.66271       -0.76372
H         46.21105       42.11925       -0.33752
H         47.56468       41.51511        0.68345
H         45.79589       42.34988        2.03936
H         45.87246       40.57866        2.28808
H         43.89533       40.33959        0.67129
H         43.89767       42.12825        0.47158
H         43.53609       42.37502        2.96505
H         43.50439       40.57410        3.11211
H         41.62337       42.29415        1.56047
H         41.60268       40.58168        1.56632
H         41.30998       41.44770        3.00366
N         47.88962       39.27312       -2.65568
C         47.82711       37.82248       -2.70825
C         46.84275       37.14084       -1.78899
O         47.26746       36.42118       -0.90299
C         49.27270       37.25207       -2.69646
C         50.20666       37.76884       -1.63641
O         51.35589       38.05332       -1.93739
O         49.83182       37.82145       -0.35123
H         48.43450       39.67744       -3.43496
H         47.48013       37.51313       -3.71290
H         49.74592       37.53426       -3.66380
H         49.25507       36.14399       -2.67983
N         45.49424       37.19062       -2.02243
C         44.90612       37.95354       -3.12105
C         43.45613       37.58984       -3.33880
O         42.60662       38.44664       -3.15072
H         44.87343       36.62458       -1.42019
H         45.41184       37.75977       -4.08322
H         45.00572       39.03644       -2.89843
N         43.06406       36.33894       -3.73366
C         43.96822       35.23238       -4.03779
C         43.91014       34.22839       -2.91189
O         42.82435       33.80202       -2.53500
C         43.56416       34.56264       -5.36722
C         44.47005       33.40386       -5.69946
O         45.66365       33.58737       -5.87991
O         43.96725       32.15689       -5.78258
H         42.05013       36.15508       -3.80638
H         45.01632       35.57964       -4.15454
H         43.60848       35.29983       -6.19739
H         42.51848       34.19149       -5.28829
N         45.05737       33.79785       -2.32490
C         45.02747       32.84785       -1.22577
C         46.36468       32.49157       -0.60399
O         46.38940       31.53313        0.15542
H         45.94505       34.13787       -2.71151
H         44.55419       31.91231       -1.59941
H         44.40057       33.25022       -0.40234
N         47.51681       33.19100       -0.85241
C         48.78170       32.83726       -0.23377
C         49.45371       34.08529        0.32026
O         49.88105       34.93234       -0.45170
C         49.68958       32.12852       -1.26971
C         49.03983       30.83294       -1.79458
O         50.92350       31.82108       -0.67159
H         47.52627       33.99053       -1.49004
H         48.62193       32.12077        0.60165
H         49.85125       32.82298       -2.12550
H         51.48380       31.37963       -1.36278
H         49.67954       30.38290       -2.58269
H         48.92230       30.09483       -0.97192
H         48.04710       31.02836       -2.24990
N         49.64539       34.21481        1.66303
C         50.47797       35.25169        2.27967
C         51.81475       35.31327        1.55417
O         52.17797       36.35583        1.03688
C         50.64276       34.92480        3.82291
C         51.46896       35.95285        4.63490
C         51.26005       33.53167        4.11067
C         50.79822       37.31011        4.75815
H         49.23468       33.49120        2.26781
H         49.99062       36.24155        2.17413
H         49.61674       34.89425        4.25306
H         52.49184       36.06632        4.21359
H         51.57659       35.56977        5.67518
H         52.34582       33.50997        3.88154
H         51.17115       33.28210        5.18576
H         50.75229       32.71530        3.55951
H         51.38318       37.94340        5.46017
H         50.74649       37.81189        3.77627
H         49.77775       37.18090        5.17295
N         52.54882       34.17403        1.45638
C         53.89442       33.97376        0.93077
C         55.04565       34.61856        1.71204
O         56.07004       33.97124        1.86268
C         53.98924       33.89243       -0.60724
C         55.01518       32.82402       -1.01666
O         54.33123       35.13206       -1.16083
H         52.08598       33.31804        1.78001
H         54.02677       32.90793        1.22056
H         53.00053       33.54953       -0.99355
H         53.86082       35.21430       -2.03045
H         56.02442       33.07041       -0.62828
H         54.70962       31.83723       -0.59535
H         55.05133       32.71478       -2.11719
N         54.92250       35.84742        2.29372
C         55.82750       36.44508        3.26937
C         57.23354       36.71154        2.75940
O         57.63305       36.19011        1.73143
C         55.78879       35.63382        4.60250
C         55.84699       36.50644        5.85970
O         56.82886       34.69126        4.67555
H         54.08948       36.39859        2.11061
H         55.37159       37.43876        3.47928
H         54.79443       35.13464        4.68264
H         56.58745       33.92118        4.10966
H         55.71260       35.86060        6.75307
H         56.81170       37.02662        5.97601
H         55.02470       37.25438        5.84939
N         58.02878       37.55955        3.46570
C         59.43115       37.76483        3.18841
C         59.79323       39.09788        2.54352
O         60.79384       39.07308        1.83468
C         60.24932       37.63073        4.48942
C         60.04040       36.33288        5.28469
C         60.40674       35.06130        4.51063
C         60.38595       33.84820        5.45265
N         60.62512       32.60440        4.72355
H         57.63973       38.01954        4.27960
H         59.79312       36.97353        2.49272
H         59.97654       38.47182        5.16306
H         61.33193       37.72792        4.25146
H         58.98772       36.25544        5.62651
H         60.68353       36.40813        6.18807
H         61.42710       35.15734        4.07969
H         59.67824       34.91239        3.68463
H         59.40301       33.78045        5.96917
H         61.17755       33.98163        6.22507
H         59.83621       32.42847        4.05973
H         61.52777       32.65468        4.19819
H         60.67255       31.81408        5.40687
N         59.20170       40.32520        2.73909
C         57.95284       40.74141        3.39675
C         57.81244       40.47220        4.89057
O         56.80383       39.91566        5.31384
C         56.72165       40.36730        2.53853
C         55.49644       41.23382        2.89478
C         54.32521       40.87379        2.03950
O         53.82554       39.62769        2.06839
O         53.82828       41.70555        1.29746
H         59.69292       41.10864        2.27924
H         57.97682       41.85295        3.34052
H         56.47663       39.29821        2.62625
H         56.96148       40.56689        1.47030
H         55.75293       42.30373        2.72585
H         55.20299       41.11091        3.95466
N         58.74942       40.91764        5.76831
C         58.55971       40.84266        7.20577
H         57.49612       40.66173        7.48153
H         59.19216       40.04131        7.63714
H         58.83765       41.81644        7.66103
H         59.60975       41.35855        5.40862
Ca        52.27809       39.12132        0.52330
O         53.65138       40.41615       -1.68327
H         54.64040       40.43424       -1.66411
H         53.40587       40.93781       -2.48688
O         50.64641       39.97506        2.46168
H         49.89493       39.88598        1.82483
H         50.67490       40.93652        2.68546
O         50.88364       41.26373       -0.93974
H         51.13181       42.14300       -1.32011
H         49.94831       41.37507       -0.63990
O         54.71096       38.06106       -0.15047
H         55.33199       38.27311       -0.88720
H         54.83056       37.09631       -0.00115

Ca 1.70



