%chk=loop1.cluster68.chk
%nprocshared=48
%mem=10GB
%nosave
#b3lyp/svp scf=(tight,noincore) Test 
#IOP(5/87=12) Density=Current Pop=(MK,readradii) iop(6/33=2) iop(6/42=6)

loop1.cluster68 

   0  1 
C         74.36165       67.95877       42.59330
C         73.35762       67.63626       41.52302
O         72.26304       67.19579       41.83970
H         75.29766       68.36919       42.15578
H         73.94922       68.70985       43.29773
H         74.61893       67.03200       43.14679
N         73.68788       67.81297       40.21375
C         72.82438       67.49838       39.08004
C         71.60079       68.40891       39.03564
O         70.50621       67.95682       38.73199
C         72.48518       65.98600       39.07296
C         72.09788       65.42684       37.73086
O         71.81375       64.11507       37.62277
O         72.09331       66.12833       36.73156
H         74.62926       68.17475       39.99504
H         73.43769       67.73398       38.18247
H         71.67963       65.77940       39.81248
H         73.38714       65.42052       39.38720
N         71.73180       69.71607       39.39444
C         70.61456       70.65402       39.45110
C         70.90583       71.92698       38.70314
O         70.00768       72.44895       38.05246
C         70.27416       70.97847       40.91106
C         69.66986       69.73557       41.57102
C         68.97164       70.07559       42.88042
C         68.16928       68.86594       43.37371
N         67.23294       69.26718       44.41849
H         72.65115       70.03086       39.72836
H         69.69140       70.22902       38.99697
H         69.49437       71.77353       40.90270
H         71.15179       71.35967       41.48052
H         70.43230       68.94319       41.70937
H         68.88151       69.34759       40.88839
H         68.25612       70.89961       42.67165
H         69.69619       70.41905       43.65202
H         68.86207       68.07558       43.73937
H         67.57374       68.43993       42.53387
H         66.72023       68.42371       44.76067
H         67.73946       69.72363       45.20975
H         66.53567       69.93569       44.01301
N         72.12920       72.51504       38.77650
C         72.44085       73.73994       38.07463
C         72.78787       73.41869       36.62167
O         72.70073       74.30922       35.78904
C         73.48656       74.48863       38.92758
C         73.69920       75.93905       38.64042
O         72.66265       76.79630       38.69631
O         74.83264       76.36987       38.50946
H         72.88583       72.06148       39.30477
H         71.51739       74.36503       38.06261
H         74.44839       73.93223       38.91094
H         73.10118       74.47638       39.97118
N         73.07364       72.12742       36.23012
C         73.06411       71.71262       34.83519
C         74.43324       71.72746       34.21048
O         74.83951       70.73639       33.61990
H         73.13962       71.38024       36.93444
H         72.36260       72.35167       34.27243
H         72.64601       70.68298       34.76680
N         75.21427       72.82861       34.32352
C         76.56482       72.91144       33.77603
C         77.32738       73.97254       34.55111
O         77.97180       74.83159       33.96265
C         76.48110       73.17813       32.24505
C         75.63665       74.39802       31.94641
O         75.28245       74.64263       30.80393
O         75.21542       75.16495       32.97421
H         74.85962       73.61784       34.88034
H         77.09854       71.96017       33.98686
H         75.98139       72.30208       31.77888
H         77.48339       73.27976       31.78501
N         77.21814       74.00038       35.91172
C         77.80469       75.04607       36.71462
C         79.26167       74.79869       36.92829
O         79.60459       73.80856       37.56257
H         76.60981       73.31454       36.38497
H         77.33261       75.04640       37.72141
H         77.59860       76.03632       36.25575
N         80.18626       75.67798       36.45421
C         81.59897       75.56355       36.77804
C         82.41261       75.27537       35.54425
O         82.00478       75.62558       34.44308
C         82.10714       76.87990       37.41725
C         81.20039       77.39033       38.54635
O         83.43412       76.73604       37.86454
H         79.87396       76.47350       35.87643
H         81.75807       74.73010       37.50003
H         82.10123       77.67816       36.64196
H         83.41702       76.30215       38.75769
H         81.64899       78.30189       38.99405
H         80.20342       77.66667       38.14057
H         81.07131       76.61708       39.33137
N         83.62835       74.68162       35.67734
C         84.55868       74.50519       34.56772
C         84.16198       73.36539       33.61625
O         84.99980       72.95253       32.82501
C         86.03150       74.37664       35.10138
C         86.33007       73.00813       35.76888
C         86.36357       75.55740       36.05063
C         87.79349       72.85344       36.20120
H         83.93705       74.43559       36.62894
H         84.58009       75.44734       33.97487
H         86.70194       74.46833       34.21728
H         86.12844       72.19816       35.03702
H         85.67412       72.84929       36.64928
H         86.11013       76.52763       35.57498
H         85.80993       75.48592       37.01033
H         87.44159       75.58894       36.30123
H         88.06543       73.57313       36.99878
H         87.95380       71.84453       36.61751
H         88.47688       72.97973       35.33477
N         82.90093       72.82840       33.60673
C         82.52930       71.68248       32.78588
C         81.90159       70.60461       33.64448
O         81.58693       70.83943       34.80762
C         81.59026       72.07995       31.61045
C         80.37445       72.91712       32.01961
O         82.31465       72.80136       30.64917
H         82.16816       73.21780       34.20831
H         83.43548       71.21774       32.34081
H         81.18967       71.15076       31.13907
H         82.76062       72.13150       30.06554
H         79.78998       72.42595       32.82443
H         80.68998       73.92745       32.35757
H         79.71815       73.05038       31.13218
N         81.68622       69.37030       33.11489
C         81.09203       68.28268       33.87426
C         82.07902       67.70300       34.89208
O         81.66316       66.96391       35.76714
C         80.58404       67.20574       32.88053
C         79.72827       66.11935       33.54263
O         81.67949       66.63823       32.20037
H         81.95643       69.20667       32.13064
H         80.20370       68.69462       34.40562
H         79.93151       67.73910       32.15054
H         81.34211       65.89011       31.64244
H         79.25975       65.49454       32.75131
H         80.34649       65.46170       34.18526
H         78.91453       66.57952       34.14134
N         83.42169       67.94005       34.76292
C         84.42730       67.30415       35.61150
C         85.44670       68.31744       36.12169
O         85.38582       69.48215       35.76347
C         85.08942       66.15247       34.80858
C         85.68954       66.53652       33.43670
C         86.15381       65.27296       32.69287
C         87.00042       65.56010       31.43764
N         88.41841       65.70679       31.77215
H         83.75839       68.50267       33.97415
H         83.95640       66.84306       36.50651
H         84.30681       65.38304       34.63648
H         85.88732       65.67757       35.41968
H         86.51668       67.24420       33.57872
H         84.92902       67.02586       32.78830
H         85.22792       64.73935       32.38853
H         86.73070       64.59528       33.35839
H         86.62451       66.45578       30.89290
H         86.91517       64.68781       30.75525
H         88.97351       65.84589       30.89706
H         88.56197       66.52078       32.40497
H         88.76322       64.82969       32.23144
N         86.44894       67.89559       36.95324
C         87.55385       68.74774       37.38471
C         87.80910       68.61937       38.89384
O         88.85623       68.11080       39.27327
C         88.81308       68.30787       36.60880
C         88.81959       68.73878       35.14101
C         89.98112       68.07838       34.45923
O         90.01922       66.86145       34.36294
O         91.00443       68.81606       33.99279
H         86.48499       66.90266       37.21906
H         87.38002       69.81543       37.15911
H         88.89823       67.20144       36.69919
H         89.72230       68.77210       37.04984
H         88.91263       69.84666       35.08921
H         87.89008       68.46335       34.62114
N         86.96387       69.12008       39.83873
C         85.70444       69.77143       39.56096
H         84.92046       69.31706       40.20218
H         85.79103       70.84824       39.81445
H         85.38624       69.67757       38.50991
H         87.26153       69.07239       40.82632
Ca        73.22921       76.16104       33.30543
O         70.43662       76.58994       32.75870
H         69.79255       76.88322       33.45022
H         70.35691       77.26489       32.03900
O         74.88368       76.90197       35.30145
H         75.67738       77.47448       35.43029
H         74.71625       76.48914       36.17881
O         71.74075       77.32238       35.59377
H         71.62593       78.26312       35.87773
H         71.71632       76.80269       36.43388
O         72.41382       73.82148       32.21541
H         72.63839       74.07291       31.28686
H         71.93394       72.96306       32.13149
O         72.82814       76.88293       30.82462
H         72.58634       77.66209       30.26985
H         73.01704       76.14823       30.19132
O         73.53753       78.87615       33.08225
H         72.79501       79.47816       32.82760
H         74.15694       79.43541       33.61301

Ca 1.70



