%chk=loop3.cluster115.chk
%nprocshared=48
%mem=10GB
%nosave
#b3lyp/svp scf=(tight,noincore) Test 
#IOP(5/87=12) Density=Current Pop=(MK,readradii) iop(6/33=2) iop(6/42=6)

loop3.cluster115 

   0  1 
C        100.48487       45.72584      105.38079
C        101.84241       45.93181      104.68724
O        102.34118       44.64485      104.44931
H         99.75219       45.25494      104.69551
H        100.61561       45.05423      106.26294
H        100.06334       46.68327      105.75394
N        102.73272       46.57753      105.65775
C        104.10620       46.84732      105.19112
C        105.08178       46.51054      106.30068
O        104.67907       46.16153      107.39775
C        104.27775       48.30633      104.69222
C        103.82006       49.30708      105.71803
O        102.81820       49.97210      105.51173
O        104.45880       49.41797      106.89572
H        102.29786       47.38006      106.16645
H        104.36584       46.16691      104.35220
H        103.67422       48.43391      103.76954
H        105.33460       48.52458      104.41136
N        106.40870       46.54205      106.02351
C        107.44909       46.18186      106.98233
C        107.96740       44.78436      106.68047
O        108.30864       44.04217      107.59529
C        108.64378       47.14415      106.79613
C        108.31049       48.64243      106.77083
C        107.65055       49.13679      108.05588
C        107.55989       50.67500      108.14035
N        107.12249       51.32198      106.89760
H        106.69341       46.79390      105.06814
H        107.07505       46.23412      108.02922
H        109.11921       46.93081      105.81229
H        109.39717       46.94020      107.58812
H        107.63566       48.85980      105.91176
H        109.26086       49.18853      106.60064
H        108.23139       48.79427      108.93988
H        106.63810       48.68599      108.11718
H        108.55943       51.08561      108.40167
H        106.86395       50.92197      108.97220
H        107.91733       51.34820      106.21746
H        106.31854       50.83290      106.45509
H        106.84537       52.30824      107.10575
N        108.07439       44.38487      105.38618
C        108.59159       43.10676      104.93348
C        109.26078       43.19757      103.54385
O        109.84876       42.21085      103.12495
C        107.44924       42.07898      104.86749
C        106.30619       42.59811      104.03875
O        106.10488       42.15592      102.92037
O        105.51260       43.57163      104.52721
H        107.63877       44.98529      104.69155
H        109.36770       42.75013      105.64936
H        107.06265       41.84573      105.88241
H        107.84608       41.13504      104.43456
N        109.22185       44.33351      102.77431
C        109.85866       44.42259      101.47291
C        110.02695       45.89335      101.10578
O        110.35125       46.66435      101.99942
H        108.75595       45.17959      103.10392
H        109.27507       43.81201      100.75554
H        110.88344       44.00734      101.55073
N        109.90854       46.39406       99.84223
C        109.71253       45.60882       98.62671
C        108.49198       46.12426       97.87121
O        107.99702       47.18773       98.21779
C        110.99119       45.79620       97.77799
C        112.22131       45.33849       98.52583
N        113.20501       46.21655       98.83666
O        112.32832       44.16653       98.85476
H        110.05834       47.41032       99.72529
H        109.57369       44.54024       98.84349
H        111.08987       46.87508       97.52279
H        110.95460       45.24321       96.82786
H        113.12763       47.21024       98.57424
H        114.04433       45.90076       99.34490
N        107.94456       45.47694       96.79883
C        108.32208       44.16535       96.29670
C        107.80359       43.02120       97.12817
O        107.30436       43.22313       98.23155
H        107.17625       45.95381       96.30052
H        109.39799       44.06273       96.07918
H        107.80068       44.04325       95.32304
N        107.82583       41.76937       96.59516
C        107.21986       40.60467       97.21720
C        108.24821       39.52271       97.47001
O        109.38034       39.62064       97.00132
C        106.16862       40.02299       96.23215
C        104.95172       40.89334       96.02804
C        103.93544       40.89395       96.99232
C        104.78645       41.66074       94.86191
C        102.76971       41.62860       96.80341
C        103.62068       42.41983       94.68105
C        102.60557       42.39687       95.65236
O        101.46994       43.10429       95.48833
H        108.25035       41.64751       95.65861
H        106.74804       40.86296       98.19293
H        105.80113       39.02766       96.55632
H        106.67492       39.84102       95.25641
H        104.02947       40.30898       97.88021
H        105.55643       41.67565       94.10027
H        101.99045       41.59319       97.55441
H        103.50134       43.01637       93.78589
H        101.31536       43.64850       94.70448
N        107.88835       38.42330       98.18590
C        108.68290       37.21219       98.31137
C        107.91876       35.98730       97.74137
O        108.52258       34.94574       97.54495
C        109.09987       37.02667       99.79881
C        107.92597       36.46900      100.65181
C        110.37523       36.19322       99.92738
C        108.28988       36.12598      102.08976
H        106.98476       38.45619       98.65570
H        109.59982       37.35402       97.69612
H        109.38746       38.03157      100.18865
H        107.50060       35.54241      100.21283
H        107.13326       37.22529      100.66307
H        110.74674       36.25354      100.97350
H        110.20315       35.13760       99.64842
H        111.17353       36.63385       99.29108
H        108.91670       35.20816      102.10060
H        108.83346       36.96242      102.57240
H        107.36128       35.90913      102.65930
N        106.57972       36.07505       97.43875
C        105.81618       35.04795       96.74064
C        105.34885       33.88353       97.60586
O        105.14995       32.80782       97.05624
C        104.58497       35.70203       96.07571
O        103.63272       36.08540       97.03426
H        106.09809       36.95456       97.59033
H        106.43985       34.67255       95.90029
H        104.09597       34.99947       95.37219
H        104.91321       36.57869       95.46348
H        103.77003       37.04704       97.21406
N        105.06537       34.03065       98.93956
C        104.57709       32.91159       99.74958
C        103.58606       33.34747      100.82721
O        103.96735       34.05846      101.74798
C        105.76885       32.18386      100.36607
H        105.24555       34.93627       99.39488
H        104.05476       32.17982       99.09514
H        106.36539       32.87778      100.99634
H        105.42399       31.32707      100.98199
H        106.41959       31.79510       99.55341
N        102.27595       32.94516      100.75500
C        101.24316       33.26332      101.74517
C        101.08942       34.75317      102.02386
O        100.51165       35.11860      103.03970
C        101.41368       32.41846      103.01399
H        101.98213       32.38349       99.94319
H        100.26415       32.93206      101.33528
H        100.54300       32.57010      103.69184
H        101.41908       31.34217      102.73203
H        102.34764       32.65856      103.55779
N        101.54587       35.67505      101.13157
C        101.35911       37.10615      101.32193
C         99.94692       37.51441      100.95868
O         99.46571       38.51909      101.46531
C        102.36147       37.88551      100.46865
C        103.79656       37.48770      100.84161
C        104.75805       38.33859      100.10235
O        105.67826       39.07209      100.75382
O        104.70554       38.37717       98.89379
H        101.99913       35.35448      100.26507
H        101.57404       37.37277      102.38271
H        102.22242       38.97536      100.63965
H        102.18545       37.67425       99.38679
H        103.97961       36.43213      100.56279
H        103.96787       37.59163      101.93167
N         99.21340       36.76119      100.09005
C         97.84985       37.08676       99.74683
H         97.24720       37.20711      100.67098
H         97.81326       38.01581       99.13982
H         97.41670       36.25284       99.15435
H         99.62547       35.91677       99.66820
Ca       103.17293       43.11428      102.93641
O        103.99352       40.22166      103.25111
H        104.66060       39.68747      102.76180
H        103.74078       39.63844      104.00705
O        101.41485       44.05118      101.25706
H        100.84215       44.84074      101.41462
H        101.45703       43.93434      100.27683
O        104.57605       45.23411      101.96090
H        105.24547       44.74558      101.42018
H        104.06850       45.78185      101.31232
O        104.14535       42.00277      100.32974
H        104.35577       42.46428       99.48092
H        104.38501       41.06150      100.15771
O        102.27256       42.19334      105.40504
H        102.03247       41.32940      105.81672
H        102.86363       42.64292      106.06084

Ca 1.70



