%chk=loop4.cluster1.chk
%nprocshared=48
%mem=10GB
%nosave
#b3lyp/svp scf=(tight,noincore) Test 
#IOP(5/87=12) Density=Current Pop=(MK,readradii) iop(6/33=2) iop(6/42=6)

loop4.cluster1 

   -3  1 
C         70.71800       53.52930       46.34600
C         69.97283       53.58561       47.63963
O         69.36349       54.60164       47.93690
H         71.77178       53.25889       46.56948
H         70.27824       52.77455       45.66326
H         70.71405       54.52715       45.85786
N         70.01577       52.52829       48.49455
C         69.48072       52.61068       49.84398
C         70.33573       53.59926       50.64183
O         71.53518       53.41165       50.79181
C         69.44317       51.21814       50.48021
C         69.02290       51.20020       51.91872
O         68.41715       52.26660       52.46627
O         69.67466       50.49328       52.66055
H         70.51172       51.67197       48.20215
H         68.41805       52.94803       49.79233
H         70.46305       50.78055       50.41985
H         68.75185       50.56556       49.90532
N         69.74661       54.71637       51.12181
C         70.40604       55.85171       51.74732
C         70.60623       55.61121       53.24180
O         71.56884       56.10963       53.80199
C         69.50124       57.11883       51.49591
C         69.29162       57.32169       49.96196
C         70.08608       58.38617       52.14114
C         68.27501       58.39825       49.58267
H         68.75985       54.81097       50.92692
H         71.38193       56.05553       51.25187
H         68.50040       56.94009       51.95479
H         68.87709       56.40113       49.51893
H         70.26162       57.52440       49.46115
H         69.45728       59.27317       51.92302
H         70.10750       58.28448       53.24592
H         71.11406       58.57286       51.76814
H         67.30443       58.21029       50.08847
H         68.62986       59.41295       49.83807
H         68.10834       58.35739       48.48282
N         69.65876       54.93599       53.95398
C         69.62999       54.87214       55.42100
C         69.79335       53.46731       56.00917
O         69.73186       53.33292       57.22674
C         68.37487       55.61284       55.95350
C         67.02356       55.16133       55.46061
O         66.01844       55.69871       55.89337
O         66.92421       54.27401       54.46098
H         68.89544       54.50786       53.42983
H         70.49013       55.43281       55.84285
H         68.46848       56.68159       55.66009
H         68.38026       55.56243       57.06134
N         70.14510       52.40436       55.23975
C         70.56811       51.12614       55.79967
C         69.46220       50.29557       56.40964
O         69.61297       49.78412       57.50829
H         70.24470       52.53529       54.22307
H         71.40659       51.27361       56.51380
H         70.96367       50.51213       54.96234
N         68.36437       50.03589       55.66138
C         67.36152       49.01845       55.96728
C         67.36148       47.96293       54.84784
O         66.52868       47.06853       54.88025
C         65.97399       49.69080       56.17058
C         65.49697       50.57222       55.05416
O         64.39437       51.32480       55.21600
O         66.10724       50.63144       54.01023
H         68.28541       50.53384       54.76938
H         67.58984       48.48886       56.91968
H         66.04556       50.33348       57.07195
H         65.19063       48.92322       56.35709
N         68.30761       47.98378       53.84981
C         68.33737       47.05747       52.72597
C         67.23162       47.29149       51.71016
O         67.01545       46.43029       50.87008
H         69.07892       48.65063       53.90470
H         68.29617       46.02160       53.12203
H         69.29674       47.17498       52.17652
N         66.49007       48.43419       51.72682
C         65.28822       48.63547       50.92491
C         65.38407       49.87055       50.06483
O         65.77164       50.92339       50.55448
C         64.08795       48.76346       51.88100
C         63.90433       47.43341       52.62124
C         62.81855       47.39992       53.65295
N         62.57251       46.23849       54.30074
O         62.16756       48.40013       53.91742
H         66.74204       49.16832       52.39078
H         65.08230       47.76548       50.26381
H         63.16135       48.98922       51.30672
H         64.26353       49.58937       52.59874
H         64.83822       47.17173       53.14688
H         63.69225       46.64874       51.86556
H         63.11961       45.39391       54.07120
H         61.83811       46.17926       55.01914
N         64.93691       49.82578       48.77688
C         64.88310       50.99565       47.91624
C         63.42241       51.35776       47.71679
O         62.67571       50.60282       47.10678
C         65.65716       50.72211       46.60157
C         65.48290       51.84870       45.57340
C         67.15446       50.55694       46.91716
H         64.54860       48.94047       48.41326
H         65.37091       51.86420       48.40938
H         65.26960       49.78637       46.13809
H         66.01117       51.58261       44.63276
H         64.41187       51.99337       45.32039
H         65.89703       52.80047       45.95852
H         67.73696       50.37764       45.98977
H         67.54261       51.48110       47.40040
H         67.32606       49.70521       47.60847
N         62.95342       52.52111       48.25222
C         61.58278       52.97615       48.16790
C         61.42016       53.78097       46.89958
O         62.39033       53.95309       46.16822
C         61.14967       53.68414       49.50198
C         61.34188       55.17309       49.68270
N         60.52897       55.88013       50.50428
O         62.25940       55.73836       49.14056
H         63.60783       53.12396       48.72474
H         60.93784       52.07278       48.10578
H         61.68856       53.20913       50.33240
H         60.08517       53.46864       49.71272
H         59.77306       55.41527       51.02527
H         60.66980       56.89557       50.63027
N         60.21355       54.26862       46.53531
C         60.01635       54.96218       45.26950
C         60.82469       56.25568       45.16977
O         61.22857       56.61752       44.07613
C         58.51672       55.20458       45.05650
C         58.21869       55.94031       43.77867
C         58.61463       55.41790       42.53483
C         57.54249       57.16739       43.82980
C         58.34111       56.12327       41.36016
C         57.26399       57.86563       42.65571
C         57.66344       57.34632       41.41602
O         57.39819       58.01472       40.27650
H         59.40611       54.09511       47.15690
H         60.36927       54.28883       44.45553
H         58.12459       55.77407       45.92756
H         58.00099       54.21880       45.03517
H         59.13906       54.47219       42.47548
H         57.23082       57.58148       44.78092
H         58.65506       55.71912       40.40614
H         56.73936       58.81028       42.71107
H         56.92050       58.85644       40.28335
N         61.06418       57.01546       46.27127
C         61.86652       58.23883       46.22004
C         63.34642       57.90570       46.03594
O         64.01076       58.53200       45.21933
C         61.53813       59.08977       47.46256
C         62.25631       60.44699       47.48055
C         61.51871       61.41561       48.36318
O         60.41446       61.82043       48.02995
O         62.07158       61.85636       49.50736
H         60.66244       56.72215       47.17277
H         61.52635       58.86804       45.36726
H         61.73637       58.55187       48.41625
H         60.43999       59.26831       47.39937
H         62.29402       60.90088       46.46670
H         63.29733       60.28814       47.83515
N         63.89898       56.85855       46.70992
C         65.26740       56.37546       46.54510
C         65.51358       55.89242       45.12447
O         66.66605       55.75595       44.74229
C         65.53890       55.21361       47.55266
C         65.51701       55.75899       48.99651
C         65.60650       54.77424       50.12987
O         66.59447       54.88813       51.01157
O         64.70496       53.99967       50.37192
H         63.29017       56.33868       47.32768
H         65.96752       57.21525       46.75601
H         66.52854       54.74159       47.36525
H         64.76387       54.43737       47.39644
H         64.60575       56.34855       49.18194
H         66.38180       56.43635       49.07354
N         64.47047       55.60401       44.29085
C         64.64237       55.17794       42.92055
H         65.70730       55.13759       42.61594
H         64.19174       54.17154       42.79624
H         64.11055       55.89288       42.25744
H         63.50786       55.67247       44.63499
Ca        66.28832       52.89317       52.81477
O         63.34718       51.96941       52.57942
H         62.60252       51.41955       52.92794
H         62.99146       52.35934       51.74878
O         63.91278       54.74615       53.60197
H         64.75818       55.15016       53.90169
H         63.50334       55.46901       53.06837

Ca 1.70



