%chk=loop3.cluster200.chk
%nprocshared=48
%mem=10GB
%nosave
#b3lyp/svp scf=(tight,noincore) Test 
#IOP(5/87=12) Density=Current Pop=(MK,readradii) iop(6/33=2) iop(6/42=6)

loop3.cluster200 

   0  1 
C         41.53436       76.84470      -20.34824
C         41.35359       76.01038      -21.57960
O         42.27043       75.28465      -21.93827
H         42.38442       77.53917      -20.51322
H         40.62622       77.44120      -20.12247
H         41.76068       76.19350      -19.47769
N         40.18333       76.05075      -22.28033
C         39.98186       75.29175      -23.51107
C         39.07322       74.10657      -23.22259
O         38.42002       74.07696      -22.18642
C         39.41888       76.26893      -24.58743
C         39.34176       75.83377      -26.03554
O         38.90354       76.61530      -26.86412
O         39.79676       74.64198      -26.45025
H         39.40736       76.63449      -21.92800
H         40.95635       74.88563      -23.85571
H         40.06904       77.17017      -24.59292
H         38.40128       76.58782      -24.26802
N         39.03970       73.05543      -24.09094
C         38.22141       71.85473      -23.97336
C         36.72106       72.07747      -24.17895
O         36.02916       71.09971      -24.41743
C         38.52888       71.05939      -22.68387
C         40.02865       70.73205      -22.50269
C         40.58041       69.76007      -23.56582
C         42.04342       69.35451      -23.30013
N         42.98776       70.44301      -23.56341
H         39.69420       73.06682      -24.87667
H         38.51150       71.21391      -24.83293
H         37.94797       70.11089      -22.68013
H         38.19455       71.64672      -21.80297
H         40.14251       70.24453      -21.50989
H         40.61259       71.67478      -22.48568
H         40.50480       70.18000      -24.59098
H         39.96402       68.83627      -23.52269
H         42.30070       68.50596      -23.97209
H         42.15045       68.99729      -22.25177
H         43.95562       70.10899      -23.34903
H         42.94802       70.70891      -24.57459
H         42.78676       71.27682      -22.96898
N         36.14385       73.31701      -24.12231
C         34.70896       73.51767      -24.28041
C         34.46747       74.89432      -24.87303
O         34.85050       75.88243      -24.26445
C         34.04994       73.33832      -22.90060
C         32.56443       73.53162      -22.84554
O         32.06793       74.01011      -21.84054
O         31.75029       73.07992      -23.80975
H         36.69900       74.13131      -23.85175
H         34.28894       72.74979      -24.96697
H         34.51216       74.03796      -22.16937
H         34.25595       72.30624      -22.55152
N         33.81697       75.02563      -26.06590
C         33.54776       76.32283      -26.66262
C         32.10407       76.67605      -26.43967
O         31.23619       75.95495      -26.89495
H         33.45894       74.18622      -26.54436
H         33.78470       76.29308      -27.74881
H         34.19164       77.11083      -26.21944
N         31.78101       77.79805      -25.73784
C         30.40776       78.19530      -25.43646
C         30.02182       79.44852      -26.21823
O         28.88440       79.88324      -26.10355
C         30.30571       78.46230      -23.92194
C         30.69869       77.25319      -23.11809
N         31.96497       77.12867      -22.65554
O         29.87623       76.37924      -22.89252
H         32.54155       78.40902      -25.40487
H         29.68905       77.39233      -25.71829
H         29.29321       78.79947      -23.60920
H         31.00638       79.29021      -23.67548
H         32.67641       77.84080      -22.86976
H         32.24427       76.31412      -22.10093
N         30.91059       80.06115      -27.06052
C         30.60943       81.23741      -27.86210
C         30.37918       82.47858      -27.03508
O         31.06503       82.67743      -26.04183
H         31.85246       79.66585      -27.17703
H         29.74667       81.03296      -28.53327
H         31.49189       81.44626      -28.49895
N         29.39595       83.35890      -27.39914
C         28.98863       84.54648      -26.63911
C         28.35366       84.21472      -25.30103
O         27.91136       85.13822      -24.63401
C         30.13601       85.54247      -26.38414
C         30.83761       86.01226      -27.62322
C         32.20210       85.73719      -27.79055
C         30.15587       86.76259      -28.59542
C         32.88269       86.21179      -28.91106
C         30.84155       87.24302      -29.71507
C         32.21009       86.97249      -29.87222
O         32.88749       87.44688      -30.93626
H         28.88600       83.17326      -28.27607
H         28.20385       85.06056      -27.23906
H         30.86151       85.08286      -25.68188
H         29.73285       86.44486      -25.87091
H         32.73936       85.16251      -27.04602
H         29.10351       86.99114      -28.47635
H         33.93734       85.99817      -29.02456
H         30.31362       87.83281      -30.45373
H         32.46088       88.00372      -31.60249
N         28.31451       82.93476      -24.82495
C         27.72294       82.50936      -23.57482
C         26.22577       82.35493      -23.77535
O         25.74508       81.23417      -23.68526
C         28.19660       83.31361      -22.31843
C         29.74283       83.52877      -22.35422
C         27.78572       82.54122      -21.04948
C         30.34639       84.12076      -21.07642
H         28.71882       82.18038      -25.37228
H         28.10740       81.47381      -23.40603
H         27.69977       84.30738      -22.29171
H         29.99373       84.21999      -23.18696
H         30.25733       82.56336      -22.54756
H         28.35430       81.58714      -20.98236
H         27.99010       83.14140      -20.13886
H         26.70145       82.31205      -21.05137
H         31.43565       84.28485      -21.22314
H         29.86804       85.08736      -20.81627
H         30.24045       83.41030      -20.23008
N         25.43330       83.40894      -24.13925
C         23.99257       83.29257      -24.31997
C         23.29559       83.15976      -22.98069
O         22.19676       82.62850      -22.94445
C         23.42561       84.46802      -25.13649
O         23.85502       85.70163      -24.61994
H         25.85439       84.32789      -24.27430
H         23.78169       82.37151      -24.91350
H         22.31522       84.44182      -25.14753
H         23.77900       84.34284      -26.18843
H         24.11311       86.26416      -25.39949
N         23.93783       83.52419      -21.82349
C         23.43016       83.23060      -20.48497
C         23.34040       81.72299      -20.22048
O         22.86154       81.33930      -19.15876
C         22.10388       83.96599      -20.22834
H         24.84646       84.00030      -21.87981
H         24.15259       83.64144      -19.74709
H         22.24740       85.05733      -20.38684
H         21.28182       83.61843      -20.88551
H         21.79012       83.81990      -19.17253
N         23.77050       80.80456      -21.13972
C         23.56307       79.37507      -21.00052
C         24.55919       78.72610      -20.07107
O         25.57922       79.32235      -19.74995
C         23.68361       78.69476      -22.37303
H         24.17426       81.12763      -22.01616
H         22.52526       79.21936      -20.63522
H         24.72259       78.77864      -22.76471
H         23.41616       77.62021      -22.30556
H         22.99800       79.18299      -23.09803
N         24.30389       77.46878      -19.60587
C         25.20912       76.70121      -18.75712
C         25.71154       77.52484      -17.58196
O         26.88340       77.43452      -17.23439
C         26.36880       76.12916      -19.60164
C         25.85537       75.19558      -20.70851
C         26.99085       74.62353      -21.50301
O         28.02834       74.03781      -20.87440
O         26.96994       74.67259      -22.72241
H         23.40091       77.03398      -19.84934
H         24.63468       75.83862      -18.34925
H         27.03222       75.53284      -18.93556
H         26.96374       76.95854      -20.04328
H         25.16070       75.73030      -21.39475
H         25.30443       74.35836      -20.23207
N         24.89804       78.43768      -16.98672
C         25.40178       79.35187      -15.98852
H         26.27635       79.90233      -16.40198
H         24.61912       80.09501      -15.73143
H         25.70836       78.79876      -15.07735
H         23.92175       78.53999      -17.30380
Ca        29.59242       73.55211      -23.38058
O         29.24176       73.67547      -26.02914
H         29.73227       74.17990      -26.71583
H         29.37971       72.73349      -26.29075
O         28.22070       71.32151      -24.15230
H         27.29713       71.12754      -23.85835
H         28.22077       71.13848      -25.12395
O         29.89419       71.60836      -21.35853
H         30.68969       71.02399      -21.42972
H         29.22532       71.07322      -20.86344

Ca 1.70



