%chk=loop1.cluster57.chk
%nprocshared=48
%mem=10GB
%nosave
#b3lyp/svp scf=(tight,noincore) Test 
#IOP(5/87=12) Density=Current Pop=(MK,readradii) iop(6/33=2) iop(6/42=6)

loop1.cluster57 

   0  1 
C         69.59780       51.00718       27.64085
C         70.65583       50.89611       26.59593
O         70.87854       49.80656       26.08658
H         68.62996       50.66555       27.21951
H         69.88045       50.37009       28.50244
H         69.48767       52.05637       27.98653
N         71.34451       51.99944       26.20051
C         72.36571       51.92343       25.17943
C         73.60895       51.26696       25.76154
O         74.33253       51.89560       26.52106
C         72.64151       53.33096       24.63733
C         73.67426       53.37932       23.57428
O         74.42098       54.48160       23.46279
O         73.88918       52.41949       22.85572
H         71.11232       52.91582       26.61396
H         71.96137       51.33019       24.32713
H         72.97930       53.98835       25.46572
H         71.70879       53.76947       24.21966
N         73.91034       49.98730       25.42405
C         75.08662       49.27197       25.88635
C         76.14429       49.22546       24.77646
O         77.18787       48.62101       24.98212
C         74.63466       47.87917       26.39055
C         73.73901       47.99884       27.64873
C         73.24337       46.62078       28.11426
C         72.49363       46.63965       29.46277
N         71.18429       47.29215       29.39342
H         73.28349       49.48972       24.78967
H         75.58046       49.79920       26.73095
H         75.52388       47.26618       26.65510
H         74.08471       47.35125       25.57836
H         72.86547       48.65291       27.44985
H         74.34742       48.45922       28.45821
H         74.13404       45.97230       28.25158
H         72.59663       46.16360       27.33291
H         73.12081       47.12693       30.24252
H         72.33522       45.58246       29.76953
H         70.59880       46.85134       28.64729
H         70.69754       47.15750       30.31077
H         71.28367       48.31660       29.21825
N         75.98282       49.94298       23.61726
C         77.02100       50.09296       22.59954
C         77.79513       51.40160       22.75007
O         78.90822       51.49317       22.25132
C         76.37964       50.20131       21.19601
C         75.50745       49.04978       20.81157
O         75.97598       47.92535       20.78039
O         74.22957       49.23478       20.41996
H         75.12399       50.48243       23.48341
H         77.72512       49.23051       22.63438
H         77.19875       50.26239       20.44509
H         75.78449       51.13985       21.12472
N         77.19323       52.50398       23.27822
C         77.75573       53.84251       23.20082
C         77.70936       54.39178       21.78115
O         78.70917       54.89471       21.29064
H         76.26914       52.41062       23.71439
H         78.76996       53.88387       23.65172
H         77.09970       54.51231       23.79886
N         76.52897       54.37349       21.09631
C         76.29596       54.99449       19.78686
C         75.26811       56.13305       19.87122
O         74.95774       56.73165       18.85150
C         75.83036       53.92013       18.76635
C         74.59898       53.12860       19.13457
O         73.88887       53.41051       20.23740
O         74.24279       52.20940       18.41707
H         75.73841       53.91224       21.55348
H         77.23523       55.44088       19.39407
H         76.65772       53.19492       18.63269
H         75.63052       54.40114       17.78256
N         74.71107       56.48813       21.06287
C         73.66933       57.48852       21.21730
C         72.36380       57.07161       20.58045
O         71.66381       57.92759       20.05805
H         75.03615       56.03801       21.91738
H         74.00657       58.48409       20.85863
H         73.46278       57.58163       22.30637
N         71.91968       55.78685       20.68657
C         70.61834       55.33633       20.19324
C         70.15254       54.06302       20.88175
O         70.95634       53.29439       21.39817
C         70.56539       55.12931       18.64835
C         70.12027       56.36327       17.86526
O         71.78436       54.62728       18.16095
H         72.50900       55.12181       21.20617
H         69.85713       56.08135       20.51372
H         69.76900       54.38465       18.41057
H         72.40073       55.38757       17.99646
H         70.84007       57.19188       17.96315
H         70.03290       56.10319       16.78829
H         69.12007       56.68242       18.22887
N         68.81409       53.81895       20.96196
C         68.22200       52.66104       21.61436
C         67.37227       51.93115       20.58822
O         66.54787       52.55427       19.92604
C         67.40461       53.10972       22.85786
C         68.35320       53.77642       23.89347
C         66.69601       51.89288       23.49601
C         67.61063       54.49250       25.02118
H         68.16734       54.51789       20.55555
H         69.00573       51.96770       21.99158
H         66.63949       53.84922       22.53090
H         68.97585       54.55383       23.40324
H         69.04248       53.01092       24.31693
H         66.09827       52.17628       24.38319
H         65.99105       51.42488       22.77887
H         67.44300       51.12826       23.80319
H         66.95397       53.81016       25.59365
H         68.34756       54.92891       25.72811
H         67.00059       55.31755       24.59495
N         67.51672       50.58998       20.41916
C         66.84519       49.81668       19.38110
C         65.72388       48.98288       19.96253
O         65.53042       49.00450       21.17036
C         67.88519       48.89343       18.68199
C         69.10911       49.68303       18.24779
O         68.29844       47.89152       19.56965
H         68.16214       50.09603       21.04272
H         66.39382       50.50259       18.63190
H         67.40948       48.41367       17.80230
H         69.11217       47.43962       19.22296
H         69.64062       50.02825       19.16010
H         69.80457       49.01995       17.69070
H         68.82525       50.54935       17.62159
N         64.92335       48.22326       19.15967
C         63.91889       47.31590       19.70787
C         64.57449       46.12229       20.40196
O         63.94125       45.52105       21.25536
C         62.88563       46.86319       18.64513
C         61.96602       48.04219       18.25762
O         63.55247       46.31605       17.52838
H         65.04934       48.28101       18.13597
H         63.34803       47.86128       20.49421
H         62.22753       46.08495       19.08971
H         63.01753       46.49144       16.70944
H         61.16276       47.69192       17.57393
H         61.46989       48.45106       19.16522
H         62.53458       48.85551       17.76143
N         65.84210       45.72103       20.08099
C         66.53417       44.66997       20.82529
C         66.92719       45.19040       22.20555
O         66.60585       44.56118       23.20437
C         67.78383       44.17545       20.05002
C         68.47365       43.04712       20.83558
C         69.68530       42.42546       20.13411
C         70.24694       41.31606       21.04280
N         71.40571       40.64791       20.45748
H         66.32974       46.17093       19.29456
H         65.86902       43.78210       20.91850
H         68.49915       45.00525       19.86645
H         67.45110       43.77636       19.06491
H         67.72730       42.24360       21.02206
H         68.81918       43.44909       21.81191
H         70.46100       43.20275       19.95588
H         69.37740       41.99430       19.15614
H         69.45129       40.55953       21.22677
H         70.54036       41.75778       22.02179
H         71.14388       40.19774       19.55113
H         72.18360       41.33089       20.31276
H         71.72753       39.90546       21.12120
N         67.64039       46.34583       22.31812
C         68.09211       46.92563       23.57974
C         66.93147       47.17982       24.51326
O         67.10915       47.06205       25.71677
C         68.89081       48.23236       23.33227
C         70.22031       47.91106       22.63657
C         71.11649       49.08032       22.37533
O         70.80397       50.04992       21.50278
O         72.24195       49.06192       22.83254
H         67.85138       46.84760       21.46117
H         68.77245       46.20490       24.08359
H         69.12055       48.73890       24.29246
H         68.27048       48.92016       22.73919
H         70.06117       47.39546       21.66930
H         70.78019       47.21729       23.30325
N         65.70233       47.50188       24.02509
C         64.53378       47.64191       24.86393
H         63.72454       47.00186       24.45236
H         64.72488       47.31763       25.90759
H         64.19741       48.69814       24.85812
H         65.57794       47.62613       23.01695
Ca        72.73949       50.90354       20.75779
O         71.35301       51.59717       18.42535
H         71.34174       50.87477       17.75360
H         71.69168       52.35597       17.90579

Ca 1.70



