%chk=loop4.cluster9.chk
%nprocshared=48
%mem=10GB
%nosave
#b3lyp/svp scf=(tight,noincore) Test 
#IOP(5/87=12) Density=Current Pop=(MK,readradii) iop(6/33=2) iop(6/42=6)

loop4.cluster9 

   -3  1 
C         58.11480       57.43701       44.58104
C         57.33889       58.08390       45.67873
O         56.18736       58.43877       45.46651
H         59.12511       57.14374       44.93530
H         57.57515       56.52450       44.25456
H         58.21982       58.14034       43.73047
N         57.92060       58.28420       46.89287
C         57.20606       58.84302       48.01604
C         57.64018       60.29706       48.23055
O         58.76426       60.57691       48.61556
C         57.39614       57.92032       49.22503
C         56.77441       58.45732       50.45732
O         55.90553       59.46528       50.34072
O         57.38307       58.33451       51.49831
H         58.91066       58.03404       47.02671
H         56.11191       58.84008       47.80198
H         58.47955       57.76795       49.40283
H         56.93723       56.93035       49.01954
N         56.74995       61.26687       47.90272
C         56.92767       62.71339       47.92366
C         56.99780       63.31154       49.33198
O         57.44754       64.44117       49.46276
C         55.73665       63.30814       47.06571
C         55.97471       62.89139       45.57871
C         55.53453       64.81908       47.22440
C         54.89517       63.30251       44.58141
H         55.89474       60.93567       47.48836
H         57.88734       62.95646       47.42165
H         54.77274       62.86354       47.41675
H         56.05021       61.78555       45.49739
H         56.94217       63.31534       45.23921
H         56.44817       65.37384       46.94177
H         54.67248       65.16435       46.61633
H         55.25432       65.04754       48.27576
H         54.80998       64.40398       44.51463
H         55.18654       62.92841       43.57529
H         53.91524       62.85760       44.84960
N         56.48267       62.66010       50.40803
C         56.36419       63.26105       51.74129
C         56.97604       62.40279       52.85100
O         56.93206       62.82402       53.99930
C         54.88337       63.65069       51.97210
C         53.94681       62.58850       51.48896
O         53.83219       61.43104       52.15441
O         53.41740       62.71325       50.39429
H         56.04251       61.75129       50.25394
H         56.92861       64.21798       51.80193
H         54.70483       64.53693       51.32294
H         54.66658       63.96346       53.01561
N         57.67954       61.26418       52.57755
C         58.51020       60.61176       53.58323
C         57.78945       59.83929       54.66757
O         58.43003       59.49115       55.64926
H         57.76199       60.93773       51.60612
H         59.17903       61.37191       54.03924
H         59.17086       59.87169       53.08087
N         56.51996       59.38152       54.48697
C         55.93543       58.36526       55.36821
C         56.29817       56.94700       54.91719
O         55.77795       55.99532       55.48405
C         54.40505       58.56517       55.50436
C         53.58695       58.49350       54.25158
O         52.26239       58.70678       54.32000
O         54.10145       58.27419       53.17621
H         56.05432       59.59262       53.59491
H         56.32695       58.48011       56.40343
H         54.22195       59.56611       55.94121
H         54.00434       57.79713       56.20108
N         57.21600       56.72504       53.92883
C         57.53193       55.40072       53.42549
C         56.38660       54.75714       52.66545
O         56.48059       53.57345       52.37712
H         57.74454       57.50949       53.54678
H         57.84501       54.76200       54.27722
H         58.38736       55.46309       52.71525
N         55.29151       55.47806       52.27275
C         54.18693       54.89381       51.51811
C         53.96578       55.62225       50.21147
O         54.43621       56.73545       50.03474
C         52.85617       54.97502       52.28180
C         52.87528       54.37957       53.68580
C         51.47758       54.39752       54.25899
N         50.82665       55.56708       54.46712
O         50.92254       53.34251       54.52377
H         55.25801       56.47434       52.48098
H         54.40556       53.82844       51.29578
H         52.08276       54.44478       51.68073
H         52.56342       56.03246       52.37011
H         53.55514       54.96518       54.34148
H         53.24203       53.33342       53.62939
H         51.27932       56.46384       54.25493
H         49.86654       55.57352       54.84181
N         53.22878       55.02143       49.24113
C         52.92590       55.64156       47.96359
C         51.42903       55.44520       47.73079
O         50.99023       54.31059       47.60702
C         53.83222       54.98014       46.88557
C         53.55940       55.48783       45.46625
C         55.32331       55.22989       47.20407
H         52.90846       54.05381       49.39763
H         53.16322       56.72757       47.97991
H         53.64490       53.88531       46.90770
H         53.82100       56.56095       45.37922
H         54.19191       54.92431       44.74614
H         52.49828       55.33720       45.18473
H         55.59806       54.87695       48.21870
H         55.97427       54.68969       46.48638
H         55.55419       56.31489       47.14106
N         50.58567       56.51693       47.68304
C         49.15314       56.40669       47.46227
C         48.89678       56.58742       45.98900
O         49.83889       56.64688       45.22805
C         48.34867       57.39498       48.35963
C         48.41848       58.85323       47.95677
N         49.39599       59.65474       48.41779
O         47.53226       59.33063       47.27003
H         50.97489       57.44926       47.69851
H         48.80352       55.38516       47.72551
H         48.61993       57.27711       49.43014
H         47.27664       57.11068       48.30140
H         50.07491       59.28839       49.08637
H         49.43836       60.64814       48.14181
N         47.63125       56.61608       45.51419
C         47.33347       56.68214       44.08979
C         47.81587       57.98954       43.43939
O         48.36554       57.94085       42.34347
C         45.82356       56.46466       43.92645
C         45.47788       56.20453       42.49841
C         45.75341       54.95012       41.92686
C         44.88799       57.20872       41.72884
C         45.43471       54.70696       40.59131
C         44.58471       56.97059       40.38972
C         44.85515       55.71750       39.81646
O         44.56342       55.47986       38.52368
H         46.85420       56.53212       46.18147
H         47.84238       55.82649       43.59251
H         45.27266       57.33375       44.34493
H         45.50592       55.56636       44.50592
H         46.20378       54.16164       42.52093
H         44.68409       58.17878       42.16498
H         45.64138       53.73572       40.15877
H         44.14231       57.76031       39.79909
H         44.17232       56.16354       37.96208
N         47.67094       59.19467       44.06996
C         48.14949       60.47240       43.51946
C         49.67265       60.55089       43.36739
O         50.16772       61.48349       42.75594
C         47.70767       61.66312       44.39734
C         46.18073       61.71212       44.55110
C         45.72943       63.00543       45.15564
O         45.05838       63.01003       46.32240
O         45.93741       64.05724       44.57176
H         47.19538       59.19123       44.97697
H         47.69543       60.59763       42.51031
H         48.05579       62.59869       43.90518
H         48.18540       61.60881       45.40434
H         45.83783       60.87242       45.19121
H         45.70281       61.61485       43.55475
N         50.46035       59.58605       43.90585
C         51.90512       59.51620       43.75096
C         52.21656       58.50712       42.65442
O         53.07579       58.77460       41.82373
C         52.53417       59.09315       45.09860
C         52.23728       60.09663       46.22469
C         52.89347       59.69949       47.52127
O         53.92903       60.21699       47.83411
O         52.22272       59.06257       48.47646
H         50.01703       58.83596       44.42936
H         52.34086       60.49736       43.45318
H         53.63454       59.01079       44.96679
H         52.13216       58.10207       45.39463
H         51.14494       60.20260       46.37936
H         52.63106       61.09227       45.92755
N         51.48579       57.36037       42.54193
C         51.64399       56.39160       41.48364
H         52.46856       56.64600       40.78977
H         51.83344       55.39554       41.93508
H         50.69342       56.33752       40.90840
H         50.73750       57.17651       43.20881
Ca        53.77207       59.57207       50.93635
O         51.08783       61.13834       51.04447
H         50.10580       61.03990       51.09155
H         51.23809       62.08420       51.28292
O         51.19444       58.05529       51.21963
H         51.64166       57.93676       52.08809
H         50.52557       58.75300       51.41527

Ca 1.70



