%chk=loop1.cluster111.chk
%nprocshared=48
%mem=10GB
%nosave
#b3lyp/svp scf=(tight,noincore) Test 
#IOP(5/87=12) Density=Current Pop=(MK,readradii) iop(6/33=2) iop(6/42=6)

loop1.cluster111 

   0  1 
C         44.92934       38.25690        4.07974
C         45.14658       37.66384        2.72740
O         46.18179       37.91417        2.13872
H         43.93156       37.98393        4.47689
H         45.70524       37.85741        4.76573
H         45.01957       39.36101        4.02991
N         44.19826       36.87309        2.15680
C         44.39096       36.19906        0.87916
C         43.74951       37.00802       -0.21079
O         42.92178       36.51466       -0.96446
C         44.03590       34.68884        0.97050
C         42.66933       34.35507        1.51958
O         41.87856       33.71772        0.84424
O         42.35303       34.65737        2.79436
H         43.29470       36.78254        2.63323
H         45.45245       36.24017        0.57072
H         44.77132       34.20243        1.64574
H         44.15612       34.22947       -0.03606
N         44.17431       38.29762       -0.36668
C         43.77274       39.18547       -1.43207
C         45.03936       39.83954       -1.99561
O         45.51242       40.77513       -1.36258
C         42.87107       40.29564       -0.80734
C         41.55915       39.74765       -0.22682
C         40.56763       39.36423       -1.34009
C         39.36570       38.55853       -0.82918
N         39.75652       37.20679       -0.41374
H         44.84190       38.68057        0.31220
H         43.22094       38.62610       -2.19848
H         42.64660       41.10087       -1.53954
H         43.43396       40.75752        0.03745
H         41.07309       40.52340        0.40694
H         41.81164       38.90457        0.44254
H         41.04660       38.76541       -2.13704
H         40.20986       40.31256       -1.80110
H         38.63879       38.46424       -1.66638
H         38.86364       39.09378        0.00563
H         40.45135       37.22521        0.36406
H         38.91111       36.69321       -0.07879
H         40.15965       36.68737       -1.22818
N         45.70677       39.44351       -3.12692
C         45.48153       38.26997       -3.97668
C         44.15531       38.29617       -4.72477
O         43.33448       39.15840       -4.45034
C         45.79464       36.96881       -3.19899
C         47.21859       37.03538       -2.74579
O         48.11610       37.04862       -3.57339
O         47.52583       37.19514       -1.45417
H         46.52762       40.01263       -3.38145
H         46.25148       38.35032       -4.77290
H         45.70749       36.05162       -3.80185
H         45.11072       36.85369       -2.35108
N         43.89755       37.46653       -5.78233
C         44.86759       36.52813       -6.33619
C         44.54119       36.22385       -7.78112
O         44.34227       37.16870       -8.53143
H         43.01223       37.61074       -6.29266
H         44.93753       35.62588       -5.70826
H         45.86493       37.00636       -6.38628
N         44.54109       34.96283       -8.30355
C         44.93489       33.76637       -7.56543
C         43.90746       33.36556       -6.51706
O         42.75906       33.77729       -6.58400
C         45.24028       32.63788       -8.57866
C         45.74929       31.35104       -7.99094
O         46.81825       31.35132       -7.17186
O         45.23097       30.29162       -8.30627
H         44.36598       34.87549       -9.31726
H         45.89371       33.99506       -7.04784
H         46.03934       33.02129       -9.24905
H         44.33944       32.43138       -9.19805
N         44.31709       32.61294       -5.46060
C         43.43342       32.21313       -4.37485
C         44.16546       31.88712       -3.08013
O         43.52362       31.34677       -2.18548
H         45.29216       32.30584       -5.44916
H         42.86549       31.32269       -4.72051
H         42.70389       33.01546       -4.13279
N         45.48448       32.19811       -2.87530
C         46.18865       31.89409       -1.64090
C         46.76489       33.14657       -1.01424
O         47.05326       34.12008       -1.70419
C         47.31613       30.85768       -1.91559
C         46.72323       29.48150       -2.20819
O         48.14819       30.71506       -0.79660
H         46.02798       32.68347       -3.60185
H         45.49909       31.45592       -0.88640
H         47.92259       31.22459       -2.78100
H         48.98970       30.29044       -1.11502
H         46.04209       29.50562       -3.08017
H         47.54256       28.75635       -2.40098
H         46.16540       29.13647       -1.30903
N         47.04687       33.12800        0.31441
C         47.77739       34.16345        1.03307
C         49.09313       34.46033        0.33690
O         49.40711       35.61947        0.17200
C         47.95590       33.74315        2.53749
C         48.68107       34.78428        3.42726
C         48.70193       32.40655        2.71113
C         47.97191       36.11440        3.50907
H         46.75521       32.28795        0.83405
H         47.18385       35.09301        1.01954
H         46.93025       33.60267        2.95036
H         49.71403       34.95800        3.06338
H         48.73205       34.39158        4.46650
H         49.75261       32.49633        2.37374
H         48.69695       32.12047        3.78426
H         48.22884       31.56958        2.16646
H         48.49396       36.79119        4.21723
H         48.00651       36.57964        2.51168
H         46.93081       35.95866        3.86381
N         49.84896       33.43937       -0.16938
C         51.15131       33.52682       -0.83589
C         52.22923       33.76034        0.21552
O         53.03175       32.87120        0.44623
C         51.16003       34.42062       -2.11686
C         52.21465       33.94900       -3.14662
O         51.30460       35.78560       -1.80665
H         49.47196       32.49587       -0.06754
H         51.32354       32.49571       -1.21937
H         50.18860       34.28283       -2.64108
H         52.17238       36.12604       -2.15337
H         53.24735       34.07632       -2.76214
H         52.05381       32.87862       -3.40078
H         52.10561       34.52880       -4.09036
N         52.21113       34.89300        0.97173
C         52.98724       35.16460        2.17778
C         54.46424       35.33883        1.90658
O         54.95365       34.87173        0.88729
C         52.68399       34.13598        3.31753
C         52.49424       34.80042        4.68599
O         53.70546       33.17781        3.43546
H         51.54204       35.61172        0.72078
H         52.60643       36.15822        2.51178
H         51.70790       33.63489        3.12999
H         53.59840       32.52499        2.70291
H         52.29551       34.02052        5.45310
H         53.38575       35.37319        4.99848
H         51.61785       35.48398        4.66352
N         55.23476       36.04693        2.78318
C         56.68039       36.09342        2.68325
C         57.31311       37.33572        2.03506
O         58.44252       37.16232        1.59724
C         57.33405       35.88114        4.06908
C         56.79469       34.70336        4.90096
C         57.07373       33.34048        4.26715
C         56.59692       32.20311        5.18056
N         56.86318       30.90626        4.56195
H         54.78905       36.44515        3.61302
H         56.99844       35.23419        2.04891
H         57.16376       36.80021        4.66848
H         58.43259       35.75520        3.94031
H         55.70568       34.82357        5.07707
H         57.29753       34.73957        5.89204
H         58.16859       33.23420        4.10704
H         56.55367       33.26605        3.28941
H         55.50523       32.30066        5.37521
H         57.12905       32.26147        6.15712
H         56.57590       30.14434        5.21733
H         56.31536       30.81900        3.67521
H         57.88430       30.81043        4.35601
N         56.81147       38.61982        1.95899
C         55.53369       39.19885        2.37586
C         55.29157       39.10024        3.87291
O         54.26831       38.59377        4.31243
C         54.40868       38.82117        1.39176
C         53.13039       39.66128        1.54641
C         52.11619       39.20849        0.54544
O         51.67987       37.94262        0.58296
O         51.68518       39.97498       -0.30090
H         57.45435       39.30868        1.53664
H         55.62788       40.29622        2.20991
H         54.15873       37.76297        1.45363
H         54.79340       39.01140        0.36336
H         53.35668       40.73852        1.38652
H         52.69078       39.53254        2.55542
N         56.18658       39.68336        4.71812
C         55.99504       39.73135        6.15178
H         55.01018       40.18592        6.39269
H         56.06216       38.71432        6.59082
H         56.78525       40.36887        6.60512
H         57.01189       40.15608        4.32087
Ca        49.64971       37.85983       -1.19611
O         51.31105       38.41021       -3.49698
H         52.14321       38.93519       -3.60037
H         51.38207       37.68289       -4.16444
O         48.78286       39.15722        1.05980
H         48.26696       39.95580        0.78797
H         48.17908       38.39874        0.86422
O         48.99390       40.04413       -2.76470
H         48.93673       39.94690       -3.74830
H         48.92073       41.01555       -2.59647

Ca 1.70



