%chk=loop1.cluster48.chk
%nprocshared=48
%mem=10GB
%nosave
#b3lyp/svp scf=(tight,noincore) Test 
#IOP(5/87=12) Density=Current Pop=(MK,readradii) iop(6/33=2) iop(6/42=6)

loop1.cluster48 

   0  1 
C         38.61205       41.16079       41.59393
C         39.69592       41.71726       40.71577
O         40.31131       40.95847       39.97998
H         37.78143       40.76538       40.97042
H         39.02085       40.34116       42.21976
H         38.20224       41.94468       42.26442
N         39.95016       43.06095       40.71272
C         40.95433       43.71022       39.87403
C         40.87702       43.20406       38.44929
O         41.84606       42.66431       37.93062
C         42.34694       43.60096       40.52145
C         43.37097       44.41476       39.77223
O         43.18623       45.60645       39.57620
O         44.49818       43.83301       39.32196
H         39.36339       43.67003       41.30119
H         40.71626       44.79736       39.85812
H         42.67149       42.54062       40.59272
H         42.27613       44.01505       41.55056
N         39.71602       43.34215       37.76179
C         39.51982       42.78251       36.43473
C         39.50635       43.84141       35.36820
O         39.38482       43.48219       34.20379
C         38.14571       42.08559       36.39271
C         38.05375       40.91118       37.36820
C         36.70693       40.18353       37.27318
C         35.53714       41.02869       37.80569
N         34.27516       40.30116       37.69344
H         38.93391       43.85014       38.20688
H         40.33046       42.06781       36.17470
H         37.94770       41.70607       35.36659
H         37.36823       42.84685       36.63039
H         38.20801       41.25537       38.41048
H         38.85930       40.19410       37.10519
H         36.77314       39.25996       37.88705
H         36.52494       39.88598       36.21694
H         35.44273       41.97881       37.24070
H         35.72735       41.27463       38.87467
H         34.32723       39.39938       38.22011
H         33.50868       40.88747       38.09593
H         34.06348       40.11308       36.68637
N         39.51623       45.16787       35.68277
C         39.14079       46.15680       34.69566
C         40.08416       47.34306       34.62690
O         39.89851       48.15900       33.73790
C         37.69900       46.54774       35.05395
C         37.00025       47.31676       33.98946
O         36.56981       48.56795       34.23319
O         36.76386       46.78531       32.91605
H         39.57903       45.46858       36.66569
H         39.14048       45.70530       33.67876
H         37.70251       47.10248       36.01592
H         37.10258       45.61684       35.19784
N         41.15203       47.48298       35.47348
C         42.13046       48.54328       35.30831
C         41.73377       49.87934       35.91821
O         42.52160       50.41303       36.68855
H         41.35807       46.75245       36.16805
H         42.37975       48.63226       34.23329
H         43.07654       48.23249       35.80728
N         40.57978       50.52873       35.57841
C         40.31433       51.88307       36.05104
C         39.92232       51.92886       37.51063
O         39.50244       50.92396       38.06271
C         39.19137       52.58533       35.25479
C         39.50481       52.68629       33.79839
O         39.82861       53.87728       33.26213
O         39.44186       51.69901       33.08945
H         39.92591       50.10331       34.91821
H         41.24100       52.47983       35.89656
H         39.09748       53.62274       35.64007
H         38.20471       52.08642       35.38633
N         39.93264       53.13603       38.14542
C         39.37516       53.40471       39.45872
C         40.12235       52.77874       40.59952
O         40.83114       53.48264       41.30800
H         40.29514       53.94807       37.62382
H         38.30188       53.12154       39.49822
H         39.42366       54.50485       39.60807
N         39.91053       51.47589       40.91800
C         40.44485       50.88718       42.13393
C         39.56221       51.25405       43.30923
O         38.47004       51.77607       43.11562
C         40.69920       49.37320       41.94061
C         39.41491       48.55442       41.72314
O         41.54240       49.21951       40.82604
H         39.21013       50.95662       40.38113
H         41.43744       51.35102       42.33806
H         41.20694       48.97860       42.85346
H         42.11455       48.42607       40.99246
H         38.80263       48.54577       42.64704
H         38.78999       48.94114       40.89538
H         39.67807       47.50842       41.46116
N         40.01867       51.07415       44.57271
C         39.30976       51.55020       45.75339
C         40.16010       52.52444       46.56145
O         39.70364       52.95990       47.60764
C         38.85393       50.34732       46.62177
C         40.03604       49.40349       46.97134
C         37.74225       49.59234       45.87117
C         39.68442       48.33930       48.00700
H         40.93638       50.61905       44.69969
H         38.39560       52.12647       45.48170
H         38.40905       50.75874       47.55622
H         40.88789       49.98991       47.37885
H         40.38112       48.89050       46.04741
H         38.15048       49.10562       44.96098
H         37.26841       48.82561       46.51309
H         36.94113       50.29689       45.55818
H         40.55726       47.66646       48.14517
H         39.44952       48.82172       48.97868
H         38.82619       47.71856       47.68359
N         41.40191       52.91732       46.13541
C         42.26676       53.76088       46.94985
C         43.53763       53.00023       47.28154
O         43.77049       51.92848       46.74417
C         42.55975       55.11259       46.24599
C         43.44687       54.99086       44.98991
O         41.35027       55.77666       45.95858
H         41.76873       52.59378       45.23370
H         41.77162       53.99389       47.91684
H         43.12441       55.75993       46.95128
H         41.06812       55.54794       45.03357
H         44.43768       54.56292       45.25124
H         42.97127       54.35373       44.21603
H         43.61552       56.00134       44.56024
N         44.39946       53.51891       48.19354
C         45.64814       52.86958       48.56918
C         45.58268       52.50524       50.03628
O         45.73795       51.33385       50.36690
C         46.82189       53.81939       48.23179
C         48.18502       53.20678       48.57030
O         46.67071       55.04125       48.90646
H         44.15259       54.40779       48.64745
H         45.80682       51.93161       47.98877
H         46.77792       54.00083       47.13255
H         47.31596       55.67860       48.50564
H         48.98771       53.91443       48.27198
H         48.27265       53.01689       49.66052
H         48.33320       52.25594       48.01723
N         45.31219       53.45543       50.97602
C         45.24841       53.15266       52.39529
C         44.46275       54.19873       53.17927
O         44.06465       55.22042       52.63157
C         46.69165       52.96210       52.93839
C         47.65069       54.16988       52.76021
C         47.30356       55.37164       53.65449
C         48.41492       56.43260       53.68112
N         48.10462       57.50912       54.63528
H         45.12896       54.41911       50.66712
H         44.67380       52.20706       52.52825
H         47.14881       52.10931       52.39204
H         46.66942       52.67100       54.01052
H         47.71560       54.48056       51.69432
H         48.65781       53.81086       53.06582
H         47.17986       54.98670       54.68761
H         46.37009       55.86295       53.32785
H         48.57621       56.86378       52.66690
H         49.35889       55.93247       53.99062
H         47.75709       58.35669       54.13365
H         47.37032       57.22792       55.31942
H         48.96398       57.76069       55.17621
N         44.19734       53.98511       54.49653
C         43.57514       54.98126       55.36290
C         42.13347       55.43689       55.05965
O         41.80085       56.49494       55.57683
C         43.59119       54.49831       56.83451
C         44.99383       54.30575       57.43553
C         45.71122       55.61070       57.62190
O         46.81155       55.77860       57.12850
O         45.16377       56.58265       58.37736
H         44.51487       53.09525       54.91199
H         44.20321       55.89844       55.29233
H         43.04085       53.53294       56.88204
H         43.05154       55.21938       57.48793
H         45.60263       53.61142       56.81827
H         44.87965       53.85279       58.44186
N         41.16194       54.74421       54.38178
C         41.26058       53.45908       53.72495
H         42.26128       53.03726       53.65342
H         40.62933       52.72748       54.26890
H         40.85924       53.56194       52.69333
H         40.22057       55.16994       54.36778
Ca        40.55687       49.79073       31.47406
O         39.04810       50.52981       28.97058
H         38.34674       49.84644       28.82383
H         38.71401       51.33277       28.49958
O         42.26784       49.63531       29.25307
H         42.23649       50.46512       28.71472
H         43.18159       49.61390       29.63315
O         42.05288       47.47329       31.59873
H         41.83603       46.63512       31.12040
H         43.03660       47.46669       31.69916
O         39.76783       47.61305       29.65330
H         39.83739       47.59872       28.66618
H         39.34782       46.74949       29.89208
O         41.17799       52.45733       30.65246
H         40.37318       52.90880       31.00622
H         41.92650       52.85672       31.15979
O         42.83950       50.73132       32.91094
H         43.17830       51.57877       32.53587
H         43.64061       50.30751       33.30625
O         37.80645       49.53328       31.37815
H         37.53846       48.62835       31.65882
H         37.49412       50.12872       32.10238

Ca 1.70



