%chk=loop2.cluster26.chk
%nprocshared=48
%mem=10GB
%nosave
#b3lyp/svp scf=(tight,noincore) Test 
#IOP(5/87=12) Density=Current Pop=(MK,readradii) iop(6/33=2) iop(6/42=6)

loop2.cluster26 

   -2  1 
C         86.81505       78.90771       24.49206
C         88.28939       79.11207       24.63294
O         88.75482       80.21589       24.40854
H         86.31019       79.87649       24.28859
H         86.61362       78.20640       23.65758
H         86.40934       78.49060       25.43801
N         89.08902       78.06774       24.99111
C         90.52601       78.18022       25.25096
C         90.73568       78.84791       26.61178
O         91.03484       78.16380       27.58277
C         91.13822       76.75622       25.14889
C         92.63746       76.68878       25.28263
O         93.36281       77.78993       25.55723
O         93.20534       75.61938       25.12505
H         88.64278       77.14349       25.10901
H         91.02332       78.77109       24.45113
H         90.89075       76.36855       24.13504
H         90.67795       76.07461       25.89741
N         90.51034       80.18855       26.75745
C         90.49084       80.87559       28.04047
C         89.04164       81.19768       28.39970
O         88.18740       81.10595       27.52515
C         91.34438       82.14744       27.92605
H         90.28618       80.74905       25.93076
H         90.88804       80.20170       28.82759
H         92.38861       81.88077       27.66349
H         90.93783       82.81043       27.12976
H         91.36796       82.73033       28.86018
N         88.63367       81.47832       29.67442
C         89.51527       81.59686       30.83413
C         89.40794       80.41399       31.76244
O         88.60247       79.52337       31.53892
C         89.16911       82.85366       31.64485
C         89.33283       84.11883       30.89010
O         90.40775       84.42163       30.40146
O         88.30770       84.97194       30.82616
H         87.62649       81.57902       29.83173
H         90.57194       81.62289       30.52932
H         89.83219       82.93578       32.52598
H         88.11618       82.77851       32.00305
N         90.26803       80.33878       32.82484
C         90.33261       79.21471       33.73846
C         90.62688       77.95816       32.95959
O         91.35914       78.04008       31.98391
H         90.95876       81.09095       32.95760
H         89.40372       79.14659       34.33027
H         91.16827       79.39900       34.44950
N         90.13158       76.73740       33.30666
C         89.47317       76.44634       34.58045
C         88.04870       76.97348       34.71695
O         87.49397       76.88715       35.80356
C         89.44360       74.92214       34.82800
C         90.82794       74.30844       34.81022
N         91.41683       73.91798       35.96076
O         91.42350       74.16401       33.75288
H         90.37175       75.95481       32.68337
H         90.09051       76.90051       35.38911
H         88.80284       74.40833       34.07587
H         88.98807       74.75074       35.82634
H         90.94311       74.05281       36.86453
H         92.36246       73.50905       35.94367
N         87.37926       77.49359       33.65523
C         86.01398       77.97278       33.75658
C         85.91393       79.19179       34.63789
O         85.09033       79.20813       35.54419
H         87.83052       77.52042       32.73434
H         85.34283       77.16136       34.11841
H         85.67552       78.25606       32.73996
N         86.67994       80.29017       34.37237
C         86.53692       81.55365       35.08676
C         85.69238       82.45652       34.19726
O         86.10888       83.55478       33.86760
C         87.95021       82.15749       35.34982
C         87.92831       83.36294       36.29619
O         88.80531       81.18480       35.88770
H         87.31900       80.25766       33.56849
H         86.00238       81.38874       36.04826
H         88.34979       82.47086       34.35818
H         89.73234       81.52225       35.75713
H         88.93938       83.82518       36.31897
H         87.20559       84.14119       35.98364
H         87.67198       83.02231       37.32059
N         84.52675       81.98670       33.66993
C         83.84393       82.66511       32.57526
C         82.96280       83.81404       33.04927
O         82.67445       83.93147       34.23366
C         83.03387       81.64054       31.69759
C         83.89613       80.47848       31.12829
C         81.87285       81.01170       32.49723
C         85.11966       80.90652       30.33157
H         84.24789       81.02975       33.90734
H         84.61834       83.11727       31.91552
H         82.59921       82.18482       30.82991
H         83.26340       79.84940       30.46266
H         84.25349       79.83846       31.95517
H         82.23880       80.45056       33.38178
H         81.16462       81.78766       32.84865
H         81.31549       80.28693       31.86913
H         85.79639       81.49356       30.97892
H         85.66849       80.00374       29.98504
H         84.84451       81.49910       29.44363
N         82.47133       84.68120       32.12436
C         81.51908       85.76017       32.37853
C         80.18886       85.44150       31.70327
O         80.03728       84.35641       31.16992
C         82.07774       87.12857       31.89330
C         82.50456       87.14827       30.45209
O         83.63201       86.52791       30.08402
O         81.87556       87.78841       29.62621
H         82.77254       84.53313       31.16015
H         81.29756       85.85195       33.46388
H         82.93265       87.44564       32.51726
H         81.31678       87.91716       32.03867
N         79.16768       86.34486       31.71476
C         77.81850       86.12459       31.20000
C         77.73710       85.62369       29.75223
O         77.42181       84.46283       29.54806
C         76.98958       85.28012       32.19297
C         75.54528       85.73431       32.12641
C         74.72619       85.44252       31.02062
C         75.04030       86.54555       33.15882
C         73.42826       85.95921       30.95375
C         73.74841       87.06447       33.08222
C         72.94243       86.77320       31.98075
H         79.32458       87.24796       32.18499
H         77.33729       87.12712       31.23386
H         77.36439       85.53315       33.20869
H         77.12639       84.18218       32.08148
H         75.08662       84.83011       30.20846
H         75.66168       86.80365       34.00798
H         72.80293       85.73923       30.09858
H         73.37918       87.70468       33.87250
H         71.94390       87.18431       31.92065
N         77.99399       86.44860       28.68797
C         77.91097       86.00152       27.29903
C         79.03898       85.06210       26.90170
O         79.08282       84.65240       25.74765
C         77.92559       87.32571       26.52349
C         78.75949       88.23139       27.41436
C         78.28304       87.85337       28.81466
H         76.94841       85.48596       27.08719
H         78.24669       87.25871       25.46058
H         76.89176       87.73842       26.54424
H         79.81807       87.90554       27.31206
H         78.69038       89.31688       27.18800
H         79.08341       88.07857       29.55014
H         77.33752       88.37259       29.09088
N         79.95397       84.63155       27.81155
C         81.02455       83.70378       27.50208
C         80.67676       82.29880       27.98881
O         81.06281       81.33613       27.34235
C         82.28817       84.26704       28.14564
C         83.57683       83.62565       27.65423
C         84.72371       84.48754       28.07867
O         85.15997       84.50087       29.34722
O         85.13188       85.34105       27.30796
H         79.90656       84.97680       28.77514
H         81.18474       83.66834       26.40233
H         82.19108       84.19408       29.23611
H         82.33318       85.34825       27.87791
H         83.55064       83.65633       26.54670
H         83.67567       82.57066       27.96573
N         79.82319       82.12015       29.04049
C         79.31941       80.83321       29.46204
H         78.26868       80.75102       29.11314
H         79.91475       79.98634       29.06672
H         79.30293       80.78527       30.57233
H         79.42697       82.93297       29.50726
Ca        86.37173       86.34379       29.81851
O         85.85837       86.48790       32.49759
H         84.91815       86.56484       32.78215
H         86.07626       85.54093       32.65879
O         88.86119       87.77691       30.42237
H         89.10862       88.02523       29.49655
H         89.72276       87.70801       30.90456
O         88.13461       85.30722       27.77848
H         88.76668       84.77229       28.31533
H         87.48220       84.63755       27.46015
O         85.98166       88.49750       28.06046
H         85.97928       89.45046       28.32672
H         85.09786       88.34864       27.63998

Ca 1.70



