%chk=loop3.cluster75.chk
%nprocshared=48
%mem=10GB
%nosave
#b3lyp/svp scf=(tight,noincore) Test 
#IOP(5/87=12) Density=Current Pop=(MK,readradii) iop(6/33=2) iop(6/42=6)

loop3.cluster75 

   0  1 
C        101.65398       44.24497       12.85410
C        101.66914       45.47975       12.01043
O        100.61822       45.93937       11.59418
H        101.99983       44.48183       13.88234
H        100.63094       43.81686       12.89962
H        102.33665       43.49517       12.40283
N        102.85327       46.06015       11.68728
C        102.93475       47.19550       10.77451
C        102.82733       46.73358        9.34416
O        103.01908       45.55900        9.06009
C        104.18989       48.04297       11.03927
C        105.43029       47.19597       11.06982
O        106.01864       46.92638       12.25178
O        105.85301       46.67679       10.05004
H        103.71701       45.58873       11.99045
H        102.06848       47.86133       10.95879
H        104.06166       48.50510       12.04102
H        104.29606       48.87197       10.30231
N        102.41851       47.61792        8.39571
C        102.16834       47.22073        7.01733
C        101.08366       46.15823        6.94384
O        101.00371       45.44657        5.94804
C        101.71717       48.46592        6.22589
C        101.63730       48.21354        4.72499
C        101.29059       49.49516        3.96618
C        101.41270       49.23007        2.46156
N        100.79726       50.29256        1.67093
H        102.23473       48.59315        8.67773
H        103.12265       46.83052        6.59873
H        102.46230       49.27050        6.39167
H        100.74044       48.83138        6.61073
H        100.85649       47.45349        4.49515
H        102.62388       47.83538        4.38703
H        101.96953       50.33174        4.24627
H        100.25015       49.77959        4.23766
H        100.90081       48.27425        2.22136
H        102.49024       49.12388        2.19158
H        101.38560       51.15517        1.68144
H        100.69620       49.95264        0.68723
H         99.84411       50.50917        2.04154
N        100.15573       46.05235        7.93949
C         98.95792       45.24804        7.80287
C         97.90891       45.96951        6.95865
O         96.95733       45.34017        6.53569
C         98.40465       44.82504        9.18457
C         97.95253       45.93291       10.09504
O         97.32518       45.62688       11.24464
O         98.12428       47.09981        9.80164
H        100.21335       46.70590        8.73083
H         99.22407       44.31201        7.25913
H         99.16285       44.21477        9.71913
H         97.52638       44.19693        9.02902
N         98.03592       47.29658        6.66082
C         97.10796       47.94994        5.75202
C         97.39380       49.43737        5.56994
O         98.26404       49.97147        6.23419
H         98.80570       47.83332        7.06359
H         96.07128       47.83797        6.12808
H         97.20478       47.43286        4.77780
N         96.69461       50.19711        4.67519
C         95.66333       49.68519        3.78347
C         94.32948       50.34500        4.13746
O         94.33529       51.50310        4.53369
C         96.08377       49.89879        2.30890
C         97.34573       49.13878        1.92483
N         97.74489       49.09302        0.63464
O         98.00199       48.54909        2.76855
H         96.92258       51.20400        4.61580
H         95.54056       48.59648        3.90740
H         96.22773       50.97949        2.09336
H         95.27100       49.52384        1.65511
H         97.19815       49.56032       -0.10098
H         98.59190       48.56452        0.37384
N         93.14450       49.65862        4.12576
C         92.96979       48.39374        3.43174
C         92.93922       47.17888        4.31817
O         93.85128       46.97578        5.10529
H         92.29718       50.12874        4.48143
H         93.78525       48.22442        2.71195
H         92.06232       48.46097        2.79428
N         91.96975       46.24525        4.12313
C         92.01228       44.90449        4.69402
C         92.02359       43.97069        3.49593
O         91.06387       43.25225        3.24981
C         90.81229       44.71613        5.63173
C         90.86094       45.74979        6.73455
C         91.81060       45.65989        7.76677
C         89.97053       46.83366        6.71563
C         91.86417       46.63752        8.76273
C         90.03878       47.82072        7.70204
C         90.98783       47.72605        8.72952
O         91.06668       48.67670        9.68275
H         91.21412       46.44923        3.44950
H         92.93468       44.73782        5.28414
H         90.79790       43.69419        6.07139
H         89.88882       44.84518        5.02851
H         92.50178       44.83436        7.80669
H         89.24111       46.92535        5.92186
H         92.59073       46.54965        9.55627
H         89.35714       48.65999        7.66435
H         90.49119       49.45510        9.67253
N         93.07223       44.05793        2.63020
C         93.08397       43.49503        1.27714
C         93.25438       41.98310        1.21048
O         93.47273       41.47274        0.11892
C         94.17297       44.21565        0.40983
C         93.87457       45.74151        0.36750
C         95.60851       43.89595        0.87594
C         94.81303       46.54479       -0.52345
H         93.83775       44.69028        2.90127
H         92.11933       43.73779        0.77796
H         94.08275       43.83642       -0.63376
H         93.92161       46.19536        1.37612
H         92.84061       45.88011       -0.01753
H         95.81366       44.27141        1.89784
H         95.77400       42.80050        0.85934
H         96.35359       44.33360        0.18046
H         94.79831       46.14597       -1.55821
H         94.47265       47.60225       -0.53628
H         95.84695       46.52916       -0.12216
N         93.13625       41.18987        2.31239
C         93.34472       39.75620        2.23609
C         94.83328       39.43807        2.20707
O         95.19314       38.34533        1.79300
C         92.57350       38.99296        3.35623
O         93.26595       38.80324        4.56654
H         92.82581       41.59185        3.19017
H         92.85812       39.42628        1.29169
H         92.33960       37.97884        2.97570
H         91.60311       39.49966        3.55918
H         93.95659       39.49499        4.66896
N         95.74949       40.31712        2.73976
C         97.16923       40.00887        2.85031
C         97.47661       39.62949        4.29547
O         98.35569       40.20407        4.92472
C         98.00691       41.18380        2.31485
H         95.42319       41.19596        3.16273
H         97.40807       39.12031        2.23133
H         97.93284       42.07255        2.98069
H         99.07371       40.89144        2.22250
H         97.64855       41.47724        1.30591
N         96.72538       38.64764        4.87995
C         96.89636       38.12102        6.22901
C         96.83889       39.15099        7.35012
O         97.21705       38.83002        8.46938
C         98.07979       37.15681        6.29500
H         95.97382       38.22388        4.32182
H         96.02298       37.46067        6.42523
H         98.08814       36.63586        7.27792
H         97.93656       36.37433        5.51520
H         99.04706       37.66646        6.12780
N         96.22481       40.35314        7.15889
C         95.82958       41.20393        8.27476
C         94.59019       40.61828        8.92907
O         94.57695       40.44756       10.14066
C         95.70395       42.70057        7.89069
C         94.59704       43.17152        6.94830
C         94.75063       42.70832        5.55253
O         93.92373       41.76650        5.10788
O         95.55085       43.23414        4.79387
H         95.83354       40.55056        6.23484
H         96.64688       41.21199        9.03400
H         96.67637       43.01244        7.46413
H         95.51241       43.24693        8.84075
H         94.59242       44.28144        6.91093
H         93.61487       42.84029        7.33875
N         93.55546       40.17270        8.15934
C         92.44315       39.42466        8.70527
H         91.52458       39.65009        8.12465
H         92.65738       38.33897        8.59920
H         92.26109       39.66068        9.77429
H         93.63494       40.22603        7.13549
Ca        96.99826       48.93190       11.82444
O         98.24661       47.23467       13.66559
H         98.82567       47.20734       14.46542
H         98.84674       46.99697       12.91770
O         97.62003       49.78845        9.17613
H         97.61478       50.62090        8.64515
H         98.43805       49.31837        8.88142
O         94.92332       47.75752       10.00957
H         94.15630       47.84374       10.62944
H         95.14619       46.79312       10.02341
O         99.85207       49.41928       11.33439
H         99.93577       48.50855       10.95880
H        100.11021       50.01557       10.58825
O         95.18785       47.12590       13.06279
H         94.21722       47.01683       12.90555
H         95.38565       46.54888       13.84133
O         95.15898       50.88899       10.97901
H         95.05249       51.58027       11.67901
H         95.66443       51.33992       10.25746

Ca 1.70



