%chk=loop3.cluster147.chk
%nprocshared=48
%mem=10GB
%nosave
#b3lyp/svp scf=(tight,noincore) Test 
#IOP(5/87=12) Density=Current Pop=(MK,readradii) iop(6/33=2) iop(6/42=6)

loop3.cluster147 

   0  1 
C         52.29033       58.06810       42.29893
C         52.72825       58.18973       43.72928
O         52.01243       57.73328       44.60801
H         51.37766       58.67479       42.12695
H         53.08546       58.41381       41.60485
H         52.07401       57.00330       42.07106
N         53.91692       58.79475       44.02885
C         54.50986       58.89573       45.36753
C         53.80828       59.87221       46.32448
O         54.43870       60.26939       47.29612
C         54.71764       57.48839       45.97641
C         55.50410       56.56325       45.07064
O         55.61102       55.25929       45.38504
O         56.03252       56.97732       44.04898
H         54.48221       59.15788       43.24627
H         55.51874       59.34406       45.21434
H         53.72640       57.02885       46.16074
H         55.24014       57.54931       46.95460
N         52.54152       60.33996       46.09185
C         51.88154       61.43147       46.81056
C         52.24510       61.57783       48.28564
O         52.79364       62.60003       48.66168
C         50.34675       61.38763       46.56610
C         49.51750       60.28957       47.27853
C         49.83982       58.81775       46.91750
C         48.96612       57.83011       47.72292
N         49.38343       57.73635       49.11926
H         52.05398       60.01283       45.25553
H         52.23106       62.36390       46.30972
H         50.16374       61.32986       45.47107
H         49.93400       62.35980       46.91283
H         48.45378       60.46017       47.00550
H         49.58406       60.46558       48.36599
H         50.90283       58.54628       47.08019
H         49.62371       58.67610       45.83888
H         49.05807       56.81283       47.28489
H         47.89691       58.13143       47.66585
H         48.73421       57.09661       49.62150
H         50.33966       57.32386       49.16938
H         49.36581       58.66285       49.58662
N         52.00636       60.55907       49.15571
C         52.45129       60.59297       50.54719
C         52.57637       59.17225       51.10080
O         52.11437       58.22981       50.48821
C         51.67373       61.61159       51.42397
C         50.19938       61.43310       51.65737
O         49.61196       62.25204       52.34478
O         49.51411       60.38541       51.18680
H         51.61918       59.69500       48.78227
H         53.50516       60.94514       50.52054
H         51.79142       62.61980       50.97786
H         52.14326       61.62953       52.42955
N         53.37041       58.94641       52.18061
C         53.78500       57.59800       52.54274
C         52.70008       56.75607       53.15772
O         51.88966       57.26790       53.91211
H         53.81106       59.74084       52.66029
H         54.59587       57.66733       53.29429
H         54.22065       57.09161       51.65091
N         52.70745       55.40763       52.95685
C         51.78922       54.48925       53.62312
C         52.52287       53.43762       54.45059
O         51.86041       52.58961       55.03506
C         50.88691       53.85030       52.55402
C         49.92876       54.88279       52.04479
N         49.02942       55.43068       52.89434
O         49.96027       55.22811       50.87423
H         53.40728       55.00656       52.31271
H         51.14885       55.02166       54.35716
H         50.27029       53.03203       52.97825
H         51.50762       53.43981       51.73023
H         48.98025       55.13418       53.87880
H         48.37818       56.14424       52.57714
N         53.87997       53.47060       54.61110
C         54.60993       52.51638       55.43087
C         54.84592       51.25702       54.64831
O         55.27942       51.34354       53.50830
H         54.42933       54.21992       54.17186
H         54.07482       52.32997       56.39062
H         55.59616       52.95425       55.67917
N         54.51763       50.04619       55.18408
C         54.45614       48.77846       54.44871
C         53.26563       48.71048       53.51087
O         52.94519       47.61109       53.09197
C         55.72065       48.42797       53.64018
C         56.96493       48.51432       54.46222
C         57.23061       47.56265       55.45664
C         57.87289       49.55754       54.23437
C         58.39934       47.65714       56.21636
C         59.02738       49.66134       55.00396
C         59.29773       48.70911       55.99639
O         60.41728       48.79846       56.73959
H         54.24367       50.01858       56.17835
H         54.29053       47.99282       55.22165
H         55.78828       49.12075       52.77591
H         55.63888       47.40777       53.20039
H         56.54024       46.74554       55.63109
H         57.67692       50.29969       53.47063
H         58.60588       46.91486       56.97617
H         59.70995       50.48206       54.82749
H         61.05465       49.51445       56.60564
N         52.60232       49.83807       53.09466
C         51.44567       49.87259       52.21994
C         50.21391       49.46881       53.01034
O         49.42255       50.34471       53.32057
C         51.70223       49.18017       50.84580
C         52.95460       49.75891       50.12194
C         50.47958       49.26698       49.92108
C         52.87612       51.25071       49.76544
H         52.92245       50.75609       53.39305
H         51.26742       50.94521       51.98551
H         51.89370       48.09992       51.00658
H         53.10615       49.19108       49.17839
H         53.86014       49.60192       50.74682
H         49.62206       48.74053       50.36207
H         50.17082       50.31533       49.74146
H         50.70438       48.77675       48.94917
H         51.99668       51.47376       49.12770
H         52.84098       51.87611       50.67770
H         53.78274       51.54464       49.19712
N         50.01195       48.19249       53.44016
C         48.84146       47.80104       54.22206
C         47.57499       47.88020       53.38969
O         46.52668       48.20290       53.93159
C         49.01412       46.38433       54.77014
O         49.20002       45.48148       53.71545
H         50.69691       47.47154       53.20399
H         48.75254       48.47571       55.10658
H         48.10963       46.10940       55.35722
H         49.90541       46.37497       55.43873
H         49.28024       44.58664       54.13230
N         47.63088       47.69047       52.03366
C         46.50477       47.88004       51.11793
C         45.92974       49.30764       51.13629
O         44.93399       49.55560       50.47194
C         45.43070       46.81929       51.38097
H         48.52766       47.40821       51.62035
H         46.87160       47.69076       50.08470
H         45.89177       45.80795       51.33177
H         44.95057       46.94845       52.37112
H         44.65053       46.87238       50.59205
N         46.50507       50.28833       51.89036
C         45.96732       51.62741       52.06685
C         46.07680       52.48334       50.82099
O         47.14446       52.58215       50.23034
C         46.68351       52.31595       53.23696
H         47.34572       50.06870       52.41338
H         44.90582       51.55333       52.38563
H         47.78202       52.35028       53.08819
H         46.30506       53.35055       53.37011
H         46.46853       51.74862       54.17056
N         44.98041       53.18822       50.41503
C         44.93618       54.12580       49.29623
C         45.13276       53.48747       47.92953
O         45.16060       54.21873       46.94851
C         45.84626       55.35918       49.51023
C         45.52668       56.05193       50.84400
C         46.06622       57.44706       50.87455
O         45.37424       58.37985       50.50040
O         47.26897       57.69124       51.40110
H         44.11868       53.09734       50.97182
H         43.90617       54.54470       49.26791
H         45.61285       56.07346       48.68750
H         46.93055       55.11771       49.45018
H         45.92685       55.45301       51.69188
H         44.42813       56.13345       50.98310
N         45.22816       52.13478       47.77222
C         45.37904       51.51010       46.47328
H         46.36047       50.99651       46.43441
H         44.57145       50.76222       46.32535
H         45.32746       52.23853       45.63659
H         45.17945       51.51294       48.58879
Ca        47.44386       60.20474       52.07115
O         44.63529       60.74850       52.75690
H         44.33434       61.63816       52.44551
H         44.10227       60.57989       53.57285
O         46.22857       61.62325       50.11836
H         46.63234       62.20601       49.43005
H         45.40610       62.09323       50.40150
O         47.17535       62.34159       53.98100
H         46.61433       61.97615       54.70987
H         46.90000       63.28838       53.89743
O         46.26218       58.04829       54.27563
H         45.31241       58.32729       54.25892
H         46.40761       57.71570       55.19660
O         49.55061       59.24355       53.78928
H         50.31985       59.05583       53.19559
H         49.65541       58.61623       54.54536

Ca 1.70



