%chk=loop3.cluster173.chk
%nprocshared=48
%mem=10GB
%nosave
#b3lyp/svp scf=(tight,noincore) Test 
#IOP(5/87=12) Density=Current Pop=(MK,readradii) iop(6/33=2) iop(6/42=6)

loop3.cluster173 

   0  1 
C         96.04845       57.39593       31.10828
C         96.74198       56.07514       31.10889
O         96.27123       55.14446       31.74872
H         95.13746       57.36277       31.74126
H         96.73266       58.18796       31.47460
H         95.75008       57.62130       30.06221
N         97.87931       55.91859       30.38174
C         98.52036       54.63207       30.19867
C         99.84161       54.56363       30.94059
O        100.57504       55.54143       31.00052
C         98.62892       54.34568       28.69391
C         99.25944       53.01557       28.44852
O         98.72316       51.91743       29.00727
O        100.25652       52.92248       27.75402
H         98.27920       56.73697       29.89566
H         97.88316       53.82172       30.61728
H         99.18907       55.14853       28.17213
H         97.60241       54.31524       28.26777
N        100.17128       53.39858       31.57052
C        101.33789       53.21391       32.43197
C        102.67160       53.52657       31.74478
O        103.65881       53.72887       32.43796
C        101.24839       51.79868       33.06132
C        101.42779       50.67351       32.01667
C        100.89510       49.30186       32.47770
C         99.35815       49.17986       32.34813
N         98.90175       47.82699       32.68613
H         99.51377       52.61063       31.47431
H        101.23138       53.95660       33.25366
H        100.23635       51.73203       33.51826
H        101.98290       51.65964       33.88388
H        102.51599       50.60394       31.80807
H        100.92875       50.90662       31.05183
H        101.24090       49.06642       33.50681
H        101.31921       48.54497       31.78368
H         99.08511       49.38820       31.28844
H         98.82311       49.91899       32.98403
H         98.87144       47.70739       33.72412
H         97.94055       47.67600       32.30063
H         99.53303       47.10359       32.27052
N        102.74424       53.64981       30.38598
C        103.88292       54.23121       29.67194
C        103.47257       55.46105       28.84913
O        104.31222       56.32710       28.64029
C        104.60855       53.17645       28.81541
C        103.70348       52.27664       27.98511
O        102.92650       52.74777       26.98291
O        103.68173       51.08483       28.23382
H        101.93921       53.34126       29.83367
H        104.63771       54.61084       30.40298
H        105.14896       52.51716       29.53193
H        105.39015       53.66711       28.19077
N        102.20104       55.62364       28.37252
C        101.75132       56.83416       27.69869
C        101.81512       56.77468       26.17909
O        101.44816       57.75241       25.54521
H        101.49835       54.90458       28.54758
H        102.28544       57.71983       28.09942
H        100.68180       56.98667       27.96361
N        102.21527       55.64696       25.52639
C        102.18023       55.47672       24.07209
C        101.07590       54.47178       23.73829
O        100.65687       53.72621       24.61022
C        103.61787       55.13293       23.57939
C        103.72600       54.33191       22.30625
N        104.35558       54.80073       21.20642
O        103.29899       53.19739       22.29840
H        102.49582       54.83616       26.08241
H        101.86167       56.41638       23.57019
H        104.12487       54.50479       24.34259
H        104.18947       56.08470       23.50937
H        104.76758       55.74152       21.18669
H        104.44107       54.19691       20.37246
N        100.40939       54.56201       22.54758
C         99.14606       53.86927       22.30882
C         99.23240       52.37086       22.16623
O         98.19093       51.73071       22.11400
H        100.72862       55.24648       21.84591
H         98.68412       54.25178       21.37324
H         98.45638       54.10685       23.14660
N        100.42453       51.74012       22.01947
C        100.51022       50.31148       21.80554
C        100.19420       49.54310       23.11375
O        101.26764       49.60342       24.03363
C        101.86393       49.93295       21.15255
C        101.89043       50.37728       19.70103
C        101.24136       49.60075       18.72244
C        102.54614       51.55585       19.31112
C        101.26113       49.99078       17.37885
C        102.55088       51.95285       17.96851
C        101.91429       51.16636       16.99725
O        101.92783       51.53036       15.69808
H        101.27253       52.29782       21.96359
H         99.72934       50.03727       21.06202
H        102.03251       48.83392       21.16368
H        102.69916       50.38075       21.72891
H        100.73261       48.68587       19.00067
H        103.04032       52.17211       20.04286
H        100.76989       49.37794       16.63263
H        103.05064       52.86992       17.68263
H        102.38398       52.32936       15.39677
N         99.91535       48.13937       22.73168
C         99.38111       47.24187       23.76954
C        100.51315       46.52138       24.44989
O        101.64582       46.99183       24.42638
C         98.25249       47.89489       24.65022
C         97.88856       47.07117       25.91349
C         97.02270       48.12464       23.74349
C         96.80444       47.72500       26.78017
H         99.24567       48.11638       21.92952
H         98.90268       46.39705       23.22085
H         98.60763       48.86873       25.04370
H         98.80202       47.00729       26.54462
H         97.55356       46.04685       25.65477
H         96.17370       48.58847       24.27907
H         97.27671       48.80723       22.90743
H         96.67852       47.15645       23.31544
H         96.69859       47.16618       27.73214
H         97.06992       48.77635       27.02221
H         95.81834       47.69965       26.27298
N        100.30587       45.28568       24.97753
C        101.36284       44.52899       25.61453
C        101.32623       43.02277       25.36266
O        102.27696       42.36685       25.74950
C        101.31889       44.83835       27.11459
O        100.02358       44.62707       27.60271
H         99.34118       44.92252       24.99432
H        102.35190       44.85586       25.22189
H        101.57826       45.91324       27.24336
H        102.04932       44.21092       27.66799
H        100.01053       44.98826       28.52676
N        100.25435       42.39295       24.77815
C        100.17309       40.93891       24.67307
C        100.48652       40.25938       26.00995
O        101.41028       39.45446       26.05650
C        101.06407       40.45908       23.51713
H         99.43053       42.92086       24.47889
H         99.13322       40.65168       24.39318
H        100.68909       40.89203       22.56426
H        102.11785       40.77592       23.65695
H        101.02751       39.35204       23.42435
N         99.77077       40.48940       27.15377
C         98.63590       41.40742       27.26134
C         97.34083       40.61843       27.13996
O         97.41103       39.40029       27.06849
C         98.73652       42.13070       28.61733
H        100.01700       39.94146       27.99248
H         98.66271       42.15874       26.46530
H         98.05535       42.99647       28.69748
H         98.51291       41.42992       29.44825
H         99.76362       42.51588       28.77278
N         96.10258       41.19581       27.11986
C         95.82754       42.62618       27.11697
C         94.90738       42.95352       25.95754
O         95.27221       43.75840       25.11165
C         95.18923       43.00874       28.46592
C         94.94105       44.51512       28.59264
C         94.41563       44.83094       29.96030
O         93.24643       44.61306       30.23452
O         95.25549       45.27329       30.91573
H         95.29235       40.55792       27.10907
H         96.75347       43.22158       26.98897
H         95.89170       42.71140       29.27548
H         94.24648       42.44612       28.62790
H         94.22845       44.88469       27.82283
H         95.90936       45.03866       28.45032
N         93.68172       42.35876       25.86810
C         92.74973       42.61981       24.79214
H         91.81698       43.04332       25.21904
H         93.15125       43.32911       24.03962
H         92.50741       41.66408       24.28145
H         93.38889       41.69073       26.59526
Ca       101.64840       51.33133       25.61957
O         98.79697       51.54079       25.27014
H         97.94492       51.15683       24.94784
H         98.57306       52.47453       25.50735
O        102.98288       48.86105       26.77059
H        102.30242       48.59606       26.10757
H        103.79750       49.02534       26.23538
O        103.95850       50.76959       24.32687
H        103.37225       51.29599       23.73158
H        104.60068       51.43062       24.68336
O        100.35932       49.37243       27.71073
H         99.98025       50.14912       28.18049
H         99.96445       48.59550       28.17616

Ca 1.70



