%chk=loop4.cluster131.chk
%nprocshared=48
%mem=10GB
%nosave
#b3lyp/svp scf=(tight,noincore) Test 
#IOP(5/87=12) Density=Current Pop=(MK,readradii) iop(6/33=2) iop(6/42=6)

loop4.cluster131 

   -3  1 
C        107.52191       26.96955       66.38885
C        108.93039       27.20865       66.85561
O        109.45595       28.29277       66.64914
H        106.82936       27.72097       66.82159
H        107.49336       27.03477       65.28169
H        107.16528       25.95849       66.68320
N        109.61259       26.21097       67.48462
C        111.00010       26.30025       67.93108
C        111.16996       27.42240       68.95822
O        112.11766       28.19236       68.88344
C        111.96836       26.45934       66.73486
C        111.57567       25.68181       65.49612
O        111.22846       26.30947       64.51239
O        111.61821       24.33578       65.41198
H        109.12725       25.31517       67.64769
H        111.22467       25.33224       68.43113
H        113.01562       26.24084       67.04060
H        111.93934       27.52830       66.43063
N        110.22878       27.58197       69.92787
C        110.25677       28.63362       70.93820
C        110.32339       27.96731       72.30125
O        109.50555       27.10131       72.57164
C        108.99041       29.54293       70.77644
C        109.28840       30.58588       69.66549
C        108.56952       30.23347       72.09612
C        108.09897       31.45412       69.26586
H        109.42868       26.93281       69.94316
H        111.13991       29.28377       70.81173
H        108.12594       28.90713       70.48220
H        109.62791       30.05453       68.75260
H        110.11442       31.25549       69.99990
H        107.65661       30.84669       71.96050
H        108.29076       29.46919       72.85386
H        109.38120       30.86502       72.50923
H        107.74995       32.08511       70.10777
H        108.41273       32.13486       68.44549
H        107.26905       30.81447       68.90206
N        111.22426       28.34963       73.25626
C        112.21933       29.40566       73.07172
C        113.37376       28.89531       72.22593
O        114.04105       29.68623       71.57662
C        112.76145       29.90763       74.42325
C        111.66102       30.45481       75.30204
O        110.66934       29.65313       75.73704
O        111.67261       31.62771       75.63763
H        111.17702       27.87500       74.17012
H        111.74692       30.30203       72.60780
H        113.49964       30.71938       74.22911
H        113.28208       29.08551       74.95788
N        113.68528       27.56497       72.24192
C        114.76453       26.96472       71.48708
C        116.11714       27.53298       71.83861
O        116.47503       27.62740       73.00402
H        113.12079       26.92667       72.81600
H        114.55973       27.08436       70.39885
H        114.78147       25.87771       71.70190
N        116.91819       27.92721       70.82177
C        118.20475       28.58624       70.95283
C        118.09737       29.99877       70.39419
O        119.10456       30.69251       70.34034
C        119.31340       27.74835       70.23597
C        119.08801       27.25275       68.81241
O        119.95863       26.58897       68.27530
O        117.94490       27.47144       68.14113
H        116.55105       27.80029       69.87491
H        118.51221       28.69161       72.01927
H        119.48644       26.83637       70.84422
H        120.26000       28.33421       70.24452
N        116.89649       30.50172       69.95870
C        116.78461       31.78445       69.29664
C        117.45238       31.76820       67.93042
O        117.52189       32.81129       67.29928
H        116.03088       29.95940       70.06343
H        117.21278       32.57072       69.95286
H        115.70742       32.01782       69.13722
N        117.90642       30.59463       67.38775
C        118.54885       30.45976       66.09123
C        117.75238       31.12229       64.99866
O        118.17821       32.14357       64.47409
C        120.02390       30.89483       66.10563
C        120.88650       29.98920       67.00730
C        122.36614       30.24244       66.82896
N        123.26768       29.43784       67.43659
O        122.75820       31.15354       66.11344
H        117.75129       29.72912       67.89782
H        118.59130       29.37740       65.82938
H        120.13388       31.96368       66.38342
H        120.39809       30.75192       65.06542
H        120.70440       28.92970       66.72156
H        120.60543       30.11518       68.07479
H        122.95651       28.64868       68.02165
H        124.27768       29.59183       67.29782
N        116.60662       30.54051       64.55138
C        115.85097       31.08998       63.43294
C        115.98744       30.19621       62.22290
O        116.36533       29.04024       62.36139
C        114.35981       31.32123       63.80875
C        113.62728       30.02807       64.22612
C        114.24410       32.36202       64.92782
H        116.30896       29.64562       64.97013
H        116.28423       32.06527       63.12450
H        113.83886       31.72872       62.91450
H        113.66763       29.26740       63.41851
H        114.05870       29.59134       65.15135
H        112.55705       30.24719       64.42956
H        114.72491       33.31201       64.61297
H        113.17500       32.56918       65.14672
H        114.73422       32.00123       65.85771
N        115.65971       30.67953       60.98898
C        115.64103       29.82793       59.80780
C        114.19270       29.43948       59.56122
O        113.29209       30.07107       60.09199
C        116.29237       30.56567       58.59979
C        116.65323       29.72935       57.37939
N        117.25441       30.31110       56.31668
O        116.44927       28.52927       57.35425
H        115.32525       31.65131       60.90449
H        116.22468       28.90640       60.01825
H        117.25020       31.00720       58.94294
H        115.62493       31.40149       58.28956
H        117.46770       31.31793       56.31850
H        117.52016       29.74299       55.49695
N        113.91629       28.33188       58.82908
C        112.55801       27.88255       58.53834
C        112.58350       26.51014       57.88348
O        113.63530       26.01535       57.51649
C        111.82698       28.90227       57.63025
C        112.59623       29.19837       56.35807
C        112.57488       28.30806       55.26816
C        113.34915       30.38002       56.26219
C        113.29295       28.60418       54.10266
C        114.07568       30.66522       55.10469
C        114.04719       29.78010       54.01897
O        114.73973       30.05244       52.89410
H        114.70013       27.76383       58.51845
H        112.01410       27.77399       59.50452
H        111.70860       29.84551       58.20254
H        110.79232       28.57825       57.38269
H        111.99475       27.39502       55.31388
H        113.38583       31.07243       57.09295
H        113.26397       27.92027       53.26312
H        114.66115       31.57428       55.05314
H        115.27112       30.85726       52.80691
N        111.41952       25.82381       57.75367
C        111.36740       24.48711       57.16295
C        110.33697       24.38785       56.03844
O        110.77014       24.18749       54.91091
C        111.14811       23.42178       58.24985
C        112.40032       23.14678       59.08588
C        112.02709       22.32667       60.29005
O        111.04271       22.76869       61.11898
O        112.55569       21.24244       60.47625
H        110.57471       26.25246       58.13969
H        112.34263       24.23978       56.68696
H        110.83774       22.45724       57.79147
H        110.36513       23.77940       58.93626
H        112.84341       24.09441       59.45046
H        113.16006       22.62499       58.45517
N        108.97546       24.41988       56.20574
C        108.25832       24.65879       57.45605
C        107.13124       25.65809       57.26791
O        106.58314       25.76884       56.17922
C        107.69535       23.36198       58.09466
C        106.77874       22.52254       57.19584
C        107.56502       21.65054       56.25809
O        107.44161       21.77038       55.05082
O        108.37900       20.69756       56.75546
H        108.40213       24.23350       55.36910
H        108.90495       25.09637       58.21492
H        107.11181       23.67838       58.98320
H        108.49928       22.70371       58.48042
H        106.06655       23.18126       56.65692
H        106.18792       21.83632       57.83830
N        106.65202       26.32635       58.35553
C        105.47825       27.17116       58.30973
H        104.64463       26.62779       58.80219
H        105.66678       28.10725       58.87531
H        105.17644       27.43123       57.27355
H        107.09901       26.17472       59.27194
Ca       111.16561       23.57946       63.28000
O        112.56040       21.25088       63.39748
H        112.77220       20.43042       63.90195
H        111.84171       20.96930       62.77927
O        110.44649       25.96607       61.66743
H        109.93936       26.24170       60.86476
H        110.44264       26.77071       62.24214
O        108.06953       24.02192       61.53264
H        108.17401       23.10362       61.88747
H        107.10116       24.10683       61.34487
O        113.57612       24.52504       62.62299
H        113.65475       25.37233       63.12832
H        114.36602       23.99131       62.88590
O        110.50083       21.63575       65.70712
H        111.07217       21.54348       66.51058
H        110.08062       20.74675       65.59457

Ca 1.70



