%chk=loop4.cluster37.chk
%nprocshared=48
%mem=10GB
%nosave
#b3lyp/svp scf=(tight,noincore) Test 
#IOP(5/87=12) Density=Current Pop=(MK,readradii) iop(6/33=2) iop(6/42=6)

loop4.cluster37 

   -3  1 
C         59.72283       61.37845       76.02079
C         60.27534       60.28122       76.87175
O         61.37706       59.82185       76.60636
H         58.74197       61.72869       76.40512
H         60.43120       62.23204       76.01549
H         59.58667       61.00046       74.98635
N         59.54562       59.78737       77.91432
C         60.00998       58.70573       78.77569
C         61.18723       59.16115       79.64377
O         61.88266       58.33123       80.21195
C         60.29293       57.42756       77.95866
C         59.34353       57.26373       76.79879
O         59.81321       57.24627       75.67201
O         58.00285       57.19207       76.92626
H         58.60895       60.17699       78.09972
H         59.17989       58.44905       79.47028
H         60.28971       56.53209       78.61637
H         61.30770       57.49583       77.51054
N         61.38583       60.49987       79.85558
C         62.38618       61.07145       80.74840
C         61.61956       61.81242       81.84231
O         60.73993       62.58676       81.49458
C         63.24288       62.14038       79.98927
C         63.85454       61.66355       78.64980
C         64.32841       62.71726       80.91710
C         64.76670       60.44681       78.75141
H         60.74871       61.17003       79.40626
H         63.05682       60.28640       81.15606
H         62.57196       62.98445       79.70787
H         64.42959       62.50226       78.19495
H         63.02945       61.42150       77.94932
H         63.87715       63.14753       81.83546
H         65.04724       61.92993       81.22258
H         64.87520       63.53768       80.40867
H         65.66322       60.66277       79.36628
H         64.20964       59.59834       79.18814
H         65.10224       60.15932       77.73184
N         61.89695       61.71825       83.17181
C         62.91790       60.87919       83.78064
C         62.38087       59.46758       83.86392
O         63.08295       58.53008       83.51579
C         63.30591       61.46453       85.15345
C         63.82310       62.87601       84.97873
O         65.02141       63.08022       84.86969
O         62.96020       63.89974       84.82023
H         61.33063       62.30750       83.80254
H         63.86312       60.89911       83.19173
H         64.10887       60.84049       85.60325
H         62.44636       61.47553       85.85760
N         61.06056       59.27883       84.15697
C         60.37599       58.02749       83.91406
C         60.83090       56.90823       84.79779
O         60.70185       56.99798       86.01041
H         60.48102       60.08851       84.41894
H         60.51746       57.76117       82.84351
H         59.28703       58.17071       84.07343
N         61.33068       55.78197       84.22399
C         61.71818       54.60029       84.97239
C         63.20410       54.30257       84.83084
O         63.67198       53.38812       85.49820
C         60.81227       53.41514       84.53619
C         60.68296       53.21336       83.04027
O         59.47959       53.34140       82.44945
O         61.64821       52.92819       82.35893
H         61.41438       55.74989       83.19730
H         61.55432       54.75249       86.06293
H         59.78712       53.63302       84.90499
H         61.14984       52.47282       85.01805
N         64.01705       55.01086       83.98185
C         65.42925       54.69780       83.82133
C         65.66082       53.79533       82.62606
O         66.70421       53.87945       81.99994
H         63.62186       55.73884       83.37171
H         65.82318       54.16179       84.70992
H         66.01693       55.64028       83.75122
N         64.71752       52.86717       82.29484
C         64.85143       51.86654       81.24585
C         65.26940       52.43561       79.89913
O         66.15773       51.88877       79.25108
C         65.69257       50.68008       81.76369
C         64.85819       49.76297       82.68889
C         65.57815       48.48236       83.04417
N         64.91378       47.48414       83.67182
O         66.75007       48.32364       82.73346
H         63.86268       52.83038       82.84484
H         63.83242       51.46795       81.03847
H         66.61494       51.04395       82.27189
H         65.98721       50.04808       80.90275
H         63.94855       49.45988       82.12470
H         64.52907       50.29050       83.61228
H         63.91740       47.58716       83.91496
H         65.39082       46.59493       83.88350
N         64.62214       53.51561       79.38497
C         64.86673       54.03488       78.04163
C         64.28040       53.09679       77.02008
O         63.09124       52.80538       77.09153
C         64.24284       55.44355       77.88526
C         65.02926       56.42452       78.76262
C         64.26499       55.94352       76.42616
H         63.91531       53.98349       79.97836
H         65.96141       54.14098       77.86344
H         63.17852       55.41481       78.21251
H         65.05023       56.09324       79.82151
H         66.07934       56.49888       78.40056
H         64.56456       57.42425       78.71607
H         63.64628       55.29234       75.77105
H         63.83404       56.96465       76.36478
H         65.30201       55.95843       76.02867
N         65.05765       52.61119       76.01230
C         64.53728       51.70284       75.00845
C         64.74792       52.23440       73.60636
O         65.46984       53.20447       73.40947
C         65.23496       50.34550       75.21887
C         64.62782       49.20656       74.44696
N         63.32891       48.87104       74.63317
O         65.31362       48.57277       73.65932
H         66.05735       52.86816       75.97526
H         63.44204       51.58594       75.14286
H         65.14951       50.07886       76.29295
H         66.31675       50.45366       74.97553
H         62.73952       49.39878       75.29376
H         62.91330       48.08435       74.11481
N         64.14870       51.59366       72.57008
C         64.36955       51.93051       71.17884
C         63.04687       51.78608       70.41865
O         63.05771       51.54487       69.21734
C         65.45213       50.94124       70.69863
C         66.19918       51.39718       69.47804
C         66.99371       52.55739       69.53870
C         66.15992       50.64772       68.29634
C         67.73411       52.96233       68.42698
C         66.89739       51.05800       67.18244
C         67.68753       52.21687       67.24525
O         68.40709       52.61643       66.17806
H         63.57298       50.76578       72.76990
H         64.75066       52.97175       71.08350
H         64.99725       49.93335       70.57958
H         66.23573       50.84768       71.48517
H         67.05283       53.13615       70.45352
H         65.56358       49.74608       68.24140
H         68.34977       53.85174       68.48670
H         66.86043       50.47186       66.27413
H         68.39417       52.12426       65.34513
N         61.85668       51.88360       71.09087
C         60.54659       51.67667       70.48415
C         60.31171       52.65328       69.33690
O         60.01728       52.17739       68.25140
C         59.40920       51.76315       71.53769
C         59.51238       50.67489       72.62370
C         58.54284       50.94397       73.73820
O         57.33949       50.89190       73.54107
O         59.00695       51.26331       74.96191
H         61.87947       52.12453       72.09209
H         60.50025       50.63936       70.07497
H         58.41908       51.66611       71.03922
H         59.43965       52.74521       72.03655
H         60.52757       50.67743       73.06621
H         59.32990       49.66394       72.19591
N         60.44449       54.01729       69.43976
C         60.84139       54.76755       70.63347
C         62.18378       55.45527       70.42601
O         62.72570       55.44311       69.32574
C         59.79708       55.87161       70.94620
C         58.41913       55.38264       71.42811
C         57.49906       56.57770       71.60691
O         57.66243       57.38725       72.67681
O         56.93949       57.02774       70.62179
H         60.28843       54.56441       68.57695
H         60.97388       54.12328       71.51207
H         59.67322       56.48580       70.02509
H         60.19011       56.53671       71.74378
H         58.53554       54.84587       72.39114
H         57.98358       54.68362       70.68217
N         62.77999       56.08382       71.47873
C         64.00412       56.84319       71.35350
H         64.80964       56.22852       70.90160
H         63.82163       57.74824       70.73467
H         64.33454       57.17817       72.36107
H         62.34192       56.02358       72.41125
Ca        57.25717       56.81614       74.83124
O         55.88655       55.06914       76.73900
H         56.26614       54.19931       76.45939
H         54.92347       54.88776       76.87277
O         58.64742       54.54475       74.97612
H         58.25898       53.68124       75.25309
H         59.41793       54.68299       75.57866
O         55.87226       54.72590       73.65733
H         55.10000       54.85879       73.05406
H         56.14726       53.78482       73.52651

Ca 1.70



