%chk=loop2.cluster8.chk
%nprocshared=48
%mem=10GB
%nosave
#b3lyp/svp scf=(tight,noincore) Test 
#IOP(5/87=12) Density=Current Pop=(MK,readradii) iop(6/33=2) iop(6/42=6)

loop2.cluster8 

   -2  1 
C         52.61607       42.75768       17.14770
C         53.91391       42.20334       16.65849
O         54.83320       42.96324       16.38698
H         51.85010       41.95559       17.22133
H         52.76264       43.20529       18.15069
H         52.25005       43.52241       16.43350
N         54.07024       40.86036       16.55191
C         55.28949       40.25875       16.05141
C         55.36989       40.52118       14.54531
O         54.57944       39.96404       13.79701
C         55.26052       38.77532       16.44881
C         56.39763       37.99842       15.91845
O         57.66430       38.28467       16.27400
O         56.16468       37.07544       15.16643
H         53.29987       40.24795       16.86398
H         56.15813       40.71206       16.57256
H         54.32000       38.31411       16.07316
H         55.25995       38.69067       17.55990
N         56.27057       41.42568       14.05247
C         56.28635       41.88965       12.66063
C         57.37354       41.25254       11.80748
O         57.32426       41.40617       10.59331
C         56.43592       43.41261       12.63978
H         56.88467       41.89924       14.71899
H         55.32465       41.61700       12.17333
H         56.50215       43.79393       11.59917
H         55.56822       43.88556       13.14380
H         57.36423       43.70623       13.17917
N         58.32301       40.44737       12.35456
C         59.14528       39.54702       11.55195
C         58.53193       38.16407       11.57279
O         59.02466       37.29518       10.86796
C         60.62582       39.52636       12.00245
C         60.88686       39.28098       13.45317
O         59.91588       38.94932       14.30629
O         62.00833       39.47561       13.89321
H         58.31111       40.31847       13.36833
H         59.14836       39.86599       10.48542
H         61.05151       40.52547       11.78521
H         61.20419       38.76912       11.42779
N         57.42229       37.88721       12.32839
C         56.81565       36.57653       12.32621
C         57.69764       35.52079       12.97183
O         57.36874       34.34966       12.85149
H         56.97035       38.61226       12.89950
H         56.57532       36.31350       11.27534
H         55.84586       36.60754       12.86407
N         58.82524       35.84580       13.68524
C         59.71227       34.82971       14.24793
C         59.24710       34.28441       15.60269
O         59.85426       33.35100       16.10497
C         61.18337       35.30683       14.27150
C         61.57771       36.31668       15.31435
N         62.88268       36.64737       15.44138
O         60.74823       36.81368       16.05708
H         59.07510       36.83005       13.81107
H         59.72062       33.98096       13.53030
H         61.45621       35.71521       13.27298
H         61.81277       34.41426       14.46383
H         63.59184       36.22367       14.82900
H         63.19583       37.30208       16.15968
N         58.16095       34.81017       16.23495
C         57.55717       34.23424       17.42685
C         58.04155       34.82944       18.72970
O         57.56435       34.40474       19.77279
H         57.66960       35.57387       15.79001
H         57.66848       33.13126       17.41747
H         56.46573       34.44734       17.38596
N         58.97735       35.81549       18.75975
C         59.42024       36.45862       19.99080
C         59.33436       37.95302       19.84731
O         59.58062       38.48285       18.77172
C         60.85950       36.05968       20.37556
C         60.95161       34.61654       20.85904
O         61.75911       36.27264       19.32595
H         59.38293       36.14109       17.87648
H         58.77806       36.17017       20.85273
H         61.17463       36.69348       21.23666
H         61.53275       35.65391       18.58513
H         60.28880       34.47315       21.73896
H         60.65461       33.91680       20.05184
H         61.99760       34.40454       21.16569
N         59.04067       38.70846       20.93382
C         58.98840       40.15262       20.87210
C         60.39069       40.66655       21.09966
O         60.95923       40.42997       22.15462
C         57.97141       40.69269       21.90771
C         56.58662       40.03827       21.64364
C         57.89049       42.23062       21.87257
C         55.48940       40.50748       22.58854
H         58.90900       38.24492       21.84650
H         58.61881       40.46939       19.86833
H         58.32555       40.39787       22.92050
H         56.67887       38.93847       21.77169
H         56.25745       40.22878       20.59718
H         57.30992       42.59202       22.74751
H         58.89784       42.68971       21.95193
H         57.40593       42.58615       20.93908
H         54.57745       39.89749       22.41658
H         55.81395       40.38728       23.64249
H         55.23671       41.56877       22.38686
N         60.99704       41.39389       20.12919
C         62.32640       41.98840       20.28618
C         62.15726       43.46458       20.36758
O         61.07351       43.95900       20.14795
C         63.34962       41.56053       19.19829
C         62.82334       41.61639       17.79610
O         63.50459       42.01941       16.86446
O         61.66316       40.98582       17.58832
H         60.44115       41.61979       19.29572
H         62.76081       41.68775       21.26069
H         63.55608       40.48916       19.39134
H         64.32351       42.08851       19.29357
N         63.19177       44.21514       20.80888
C         63.05963       45.63237       21.10585
C         62.76270       46.48488       19.87787
O         61.99941       47.43655       20.02118
C         64.33211       46.09991       21.81995
C         64.17200       47.42210       22.50869
C         64.90147       48.53362       22.07192
C         63.32957       47.53730       23.63012
C         64.80243       49.74681       22.75491
C         63.24109       48.75021       24.31643
C         63.98057       49.85343       23.88139
H         64.07334       43.73759       21.03891
H         62.21579       45.73384       21.82672
H         65.16723       46.11695       21.09222
H         64.60247       45.37202       22.61688
H         65.54837       48.45527       21.20727
H         62.76524       46.68258       23.98618
H         65.37283       50.60032       22.41647
H         62.60907       48.83115       25.19177
H         63.92018       50.78962       24.41895
N         63.30145       46.25193       18.63417
C         62.95598       47.04274       17.46459
C         61.45179       47.01075       17.18135
O         60.91403       47.97047       16.65640
C         63.75959       46.37386       16.33617
C         64.93619       45.76225       17.08493
C         64.26637       45.21501       18.33659
H         63.30645       48.08262       17.64921
H         63.18450       45.51680       15.91986
H         64.03963       47.05719       15.50477
H         65.52265       45.01038       16.51359
H         65.61559       46.58643       17.39975
H         63.71383       44.28283       18.10448
H         65.03047       45.04992       19.11875
N         60.71826       45.92188       17.55406
C         59.25789       45.86171       17.48933
C         58.63022       46.53384       18.69970
O         57.56878       47.12837       18.57072
C         58.81462       44.39076       17.45133
C         59.31538       43.73387       16.16508
C         58.98102       42.29268       16.09828
O         59.24729       41.68443       15.07999
O         58.39929       41.65423       17.13518
H         61.21186       45.11345       17.95396
H         58.87855       46.33133       16.55476
H         57.70273       44.32392       17.46213
H         59.20361       43.84794       18.34025
H         60.41917       43.81389       16.06822
H         58.84005       44.24041       15.29731
N         59.22063       46.44973       19.92192
C         58.67262       47.04968       21.11338
H         57.67952       46.61067       21.33784
H         59.35145       46.84585       21.97244
H         58.59527       48.14814       20.98232
H         60.10442       45.95709       20.01237
Ca        60.43462       39.72981       16.26861
O         62.54801       38.67147       17.89841
H         63.35719       39.08002       17.50076
H         62.92026       38.06689       18.57171

Ca 1.70



