%chk=loop2.cluster211.chk
%nprocshared=48
%mem=10GB
%nosave
#b3lyp/svp scf=(tight,noincore) Test 
#IOP(5/87=12) Density=Current Pop=(MK,readradii) iop(6/33=2) iop(6/42=6)

loop2.cluster211 

   -2  1 
C         53.30703       13.11587       23.14083
C         52.74637       12.10606       22.18256
O         52.08106       11.17834       22.60403
H         54.32931       13.40583       22.81703
H         52.66107       14.01647       23.16376
H         53.39319       12.69443       24.16172
N         53.03351       12.20496       20.85836
C         52.58533       11.23906       19.85117
C         53.05227        9.81381       20.15502
O         52.41262        8.87275       19.71072
C         53.14284       11.69410       18.49138
C         52.63840       10.92149       17.30721
O         52.93653        9.61720       17.16078
O         51.99707       11.49335       16.44095
H         53.60908       13.00548       20.55757
H         51.47130       11.26622       19.83249
H         54.25360       11.63236       18.52579
H         52.86125       12.76075       18.35279
N         54.14784        9.59254       20.93841
C         54.60906        8.27696       21.37518
C         53.49803        7.47060       22.04225
O         53.33237        6.29416       21.75012
C         55.34264        7.52329       20.25836
H         54.66869       10.40665       21.29215
H         55.37764        8.46149       22.15463
H         56.20046        8.13396       19.90092
H         55.75712        6.57156       20.65910
H         54.67541        7.29861       19.40216
N         52.70099        8.06918       22.97364
C         51.67179        7.38766       23.75935
C         50.57606        6.72467       22.92350
O         49.87846        5.86257       23.44130
C         52.31928        6.34816       24.70085
C         53.52420        6.88633       25.41289
O         54.65888        6.16206       25.45018
O         53.48950        7.98338       25.94131
H         52.86281        9.05954       23.17506
H         51.19137        8.14424       24.42201
H         52.62911        5.43693       24.14714
H         51.55848        6.05461       25.45636
N         50.40286        7.04045       21.60882
C         49.59159        6.24666       20.69654
C         48.13160        6.11113       21.04934
O         47.67093        6.71055       22.00818
H         50.93777        7.81697       21.21171
H         50.02425        5.22504       20.66822
H         49.66514        6.68110       19.67591
N         47.34738        5.28011       20.29219
C         45.93980        4.97936       20.56617
C         45.00470        6.16560       20.41282
O         43.82447        6.01265       20.69768
C         45.77699        4.33581       21.96445
C         46.47587        3.00623       22.03717
N         46.06147        1.97738       21.25984
O         47.40612        2.84838       22.81292
H         47.78948        4.79081       19.49877
H         45.58770        4.24044       19.81347
H         44.70390        4.14921       22.18347
H         46.15165        5.01858       22.75390
H         45.26065        2.09289       20.62064
H         46.52861        1.06114       21.31076
N         45.43158        7.35870       19.91663
C         44.56550        8.52317       19.84992
C         45.26885        9.71082       20.45143
O         45.18876       10.78848       19.87753
H         46.39517        7.45481       19.57254
H         43.58801        8.35940       20.35074
H         44.36273        8.74692       18.77994
N         46.11297        9.55307       21.51660
C         47.01553       10.60985       21.95005
C         46.94255       10.82144       23.44536
O         47.04008        9.86873       24.20846
C         48.47765       10.30413       21.55717
C         48.60638        9.87307       20.09818
O         49.24000       11.47379       21.72371
H         46.20463        8.62625       21.95216
H         46.77060       11.55807       21.42210
H         48.88690        9.46888       22.17369
H         49.69896       11.40750       22.59638
H         48.09906        8.90305       19.94589
H         48.16206       10.63261       19.42088
H         49.67418        9.73073       19.83967
N         46.86186       12.08869       23.92184
C         46.85120       12.45195       25.34326
C         48.09774       11.94841       26.07079
O         48.97776       11.41939       25.41166
C         46.71462       14.00639       25.39476
C         46.22612       14.55191       26.74751
C         48.01429       14.70344       24.91583
C         45.71066       15.98386       26.62046
H         46.80930       12.84177       23.21932
H         45.95703       11.97178       25.79661
H         45.89447       14.24059       24.67885
H         47.02013       14.53017       27.51858
H         45.36754       13.92869       27.07893
H         48.36313       14.29987       23.94177
H         47.86286       15.79072       24.77575
H         48.83397       14.55184       25.65100
H         46.53170       16.68443       26.36941
H         44.92964       16.03830       25.83018
H         45.25716       16.29713       27.58177
N         48.25066       12.09415       27.42540
C         49.46059       11.67358       28.12144
C         49.15524       10.63879       29.18041
O         49.45126       10.82897       30.35505
C         50.26503       12.90468       28.59660
C         51.63641       12.48167       29.04532
O         52.30868       11.62894       28.24768
O         52.11077       12.86727       30.10279
H         47.50723       12.52720       27.98021
H         50.12208       11.14453       27.41114
H         49.72742       13.50514       29.35743
H         50.42563       13.53617       27.69714
N         48.64168        9.44753       28.78196
C         48.56641        8.27554       29.62995
C         47.77665        8.39262       30.94692
O         48.17764        7.70358       31.86914
C         48.17144        6.99551       28.83553
C         46.71039        6.95177       28.43785
C         45.83295        6.10812       29.13995
C         46.20078        7.75266       27.39502
C         44.46943        6.09802       28.83712
C         44.83518        7.74425       27.10284
C         43.96893        6.92404       27.82751
H         48.44555        9.33698       27.77933
H         49.61824        8.08618       29.94862
H         48.38851        6.13023       29.50047
H         48.81756        6.85891       27.93867
H         46.20185        5.47868       29.94003
H         46.84158        8.39526       26.81466
H         43.79817        5.46430       29.40031
H         44.44793        8.38400       26.32015
H         42.90952        6.93209       27.61048
N         46.61790        9.12860       31.12240
C         45.90042        9.86269       30.10529
C         46.00182       11.37644       30.20872
O         45.41334       12.03585       29.36952
C         44.44464        9.49467       30.42117
C         44.41470        9.36204       31.95027
C         45.82187        8.90191       32.32093
H         46.18670        9.59915       29.07847
H         43.66277       10.17729       30.01321
H         44.26443        8.48880       30.01575
H         44.25543       10.33014       32.43652
H         43.61092        8.67784       32.30368
H         46.23409        9.44977       33.19787
H         45.77204        7.81533       32.54276
N         46.64215       12.00009       31.24249
C         46.47201       13.43787       31.46974
C         47.76014       14.22229       31.45601
O         48.76695       13.79123       31.99778
C         45.68601       13.65530       32.77076
C         44.20410       13.32878       32.52265
C         43.40195       13.37563       33.78322
O         42.82571       12.37446       34.17835
O         43.29759       14.52502       34.47498
H         47.14214       11.44631       31.95085
H         45.85543       13.89934       30.67278
H         45.73636       14.72078       33.08358
H         46.12290       13.02743       33.58009
H         44.10896       12.33785       32.06268
H         43.78060       14.05063       31.79069
N         47.75665       15.44195       30.83925
C         48.91332       16.29874       30.75550
H         49.75362       15.75868       30.27847
H         48.65665       17.17617       30.12078
H         49.20027       16.66746       31.76207
H         46.88357       15.78451       30.41151
Ca        54.02216       10.26276       27.73625
O         55.20766       10.23316       24.36837
H         55.12315        9.24934       24.39113
H         56.09981       10.40010       23.97508
O         51.65107        8.65186       27.83373
H         50.94446        8.59410       27.14371
H         51.55549        7.82496       28.36688
O         52.13426       10.63693       25.73455
H         51.25286       10.95758       25.44407
H         52.66629       10.62238       24.90833
O         56.73086        9.84056       27.06332
H         57.08371       10.63259       26.58635
H         57.39197        9.66215       27.77728
O         53.25872        9.49027       30.69743
H         52.79555        8.70016       30.32412
H         52.60462       10.22591       30.60118
O         55.52452       11.22460       29.59633
H         56.45705       11.54674       29.61436
H         55.10088       11.54908       30.42785
O         54.70675        7.63521       28.59125
H         54.76093        6.94847       27.88430
H         55.49934        7.46191       29.15488
O         54.83612       12.78436       26.48344
H         55.16498       13.65843       26.15991
H         55.27296       12.13094       25.88577

Ca 1.70



