%chk=loop2.cluster116.chk
%nprocshared=48
%mem=10GB
%nosave
#b3lyp/svp scf=(tight,noincore) Test 
#IOP(5/87=12) Density=Current Pop=(MK,readradii) iop(6/33=2) iop(6/42=6)

loop2.cluster116 

   -2  1 
C         51.25727       45.49305       15.55267
C         52.35573       44.98603       14.67307
O         53.36036       45.66495       14.51914
H         50.37636       44.81751       15.52254
H         51.63430       45.53031       16.59640
H         50.94659       46.50766       15.23260
N         52.26338       43.75053       14.11410
C         53.36214       43.16358       13.37068
C         53.48899       43.81184       12.00408
O         52.52994       43.81511       11.24441
C         53.14914       41.65711       13.24095
C         54.34639       40.93836       12.71878
O         55.57055       41.50432       12.72194
O         54.21268       39.79331       12.34608
H         51.43088       43.17448       14.31399
H         54.28270       43.29271       13.96998
H         52.28391       41.46820       12.57331
H         52.93299       41.21160       14.23728
N         54.67352       44.35607       11.62447
C         54.88798       45.05165       10.36981
C         55.81134       44.26968        9.43825
O         56.03908       44.72949        8.32788
C         55.47258       46.43026       10.70198
H         55.46821       44.26906       12.25398
H         53.92276       45.19405        9.83648
H         54.80728       46.95661       11.42160
H         56.47041       46.31594       11.18174
H         55.57867       47.05760        9.79369
N         56.34598       43.06122        9.80566
C         57.18774       42.24977        8.92540
C         56.52457       40.91767        8.58309
O         57.02880       40.21294        7.71914
C         58.50989       41.90195        9.64592
C         59.12473       43.07158       10.35484
O         59.12510       43.10284       11.70289
O         59.59998       44.00138        9.72591
H         56.15797       42.69525       10.74249
H         57.38664       42.80563        7.98350
H         59.23885       41.43320        8.94646
H         58.27558       41.14857       10.43154
N         55.43684       40.46932        9.27737
C         54.86914       39.15066        9.09290
C         55.82518       38.07130        9.53512
O         56.06984       37.14686        8.77368
H         55.00772       41.05312       10.00402
H         54.53805       39.00821        8.04189
H         53.97519       39.05933        9.74673
N         56.37789       38.11507       10.78574
C         57.20976       37.04041       11.32000
C         56.58348       36.37559       12.55357
O         57.01276       35.28976       12.91859
C         58.62932       37.55068       11.61250
C         58.70184       38.38652       12.86163
N         59.40925       37.94358       13.92271
O         58.11268       39.45519       12.92816
H         56.20144       38.93977       11.36857
H         57.30341       36.24925       10.54758
H         59.01943       38.13448       10.74962
H         59.28633       36.66595       11.74176
H         59.89022       37.03143       13.89799
H         59.45744       38.51342       14.77405
N         55.58817       36.98461       13.26410
C         54.89820       36.36932       14.38001
C         55.42298       36.78596       15.73747
O         54.83516       36.36971       16.72376
H         55.29550       37.92583       13.01540
H         54.90465       35.26366       14.29100
H         53.83052       36.68375       14.32461
N         56.53409       37.57270       15.88206
C         57.01247       38.00097       17.19945
C         57.30177       39.47460       17.23489
O         57.69115       40.05121       16.23837
C         58.25877       37.24103       17.69230
C         57.93624       35.77741       17.97158
O         59.29798       37.34232       16.76279
H         57.05114       37.87466       15.04839
H         56.21908       37.82485       17.95679
H         58.58298       37.70589       18.65406
H         60.09868       36.91537       17.16353
H         57.16133       35.71297       18.76527
H         57.57643       35.27388       17.05201
H         58.85068       35.26613       18.33668
N         57.14540       40.13193       18.41115
C         57.34296       41.56293       18.56362
C         58.82826       41.84458       18.69994
O         59.47504       41.22248       19.53097
C         56.63271       42.14404       19.83882
C         55.29465       41.43859       20.20378
C         56.39969       43.65749       19.60905
C         54.66528       41.95599       21.49164
H         56.83860       39.57690       19.21037
H         56.88069       42.06802       17.68590
H         57.30264       41.99938       20.71566
H         55.46865       40.37424       20.44049
H         54.57326       41.50016       19.36218
H         57.32390       44.16971       19.27858
H         55.63213       43.80551       18.81518
H         56.05605       44.16571       20.53022
H         54.33254       43.00529       21.38749
H         53.78081       41.32931       21.73363
H         55.39380       41.86814       22.32772
N         59.40121       42.85246       17.99658
C         60.77798       43.28604       18.22094
C         60.77489       44.61116       18.97149
O         59.71752       45.16051       19.18809
C         61.55197       43.33232       16.88680
C         60.88987       44.10239       15.75929
O         61.40014       45.13540       15.36701
O         59.79034       43.65933       15.11041
H         58.80730       43.40095       17.36752
H         61.31069       42.58734       18.90370
H         61.73619       42.30076       16.52834
H         62.54421       43.78948       17.09801
N         61.92796       45.12697       19.49381
C         61.93332       46.35997       20.28801
C         61.52005       47.56281       19.43505
O         60.61149       48.26949       19.85897
C         63.27672       46.50823       21.05427
C         63.32837       47.67194       22.02508
C         64.32639       48.65212       21.88760
C         62.41639       47.76932       23.09583
C         64.40712       49.71260       22.79511
C         62.50082       48.83614       23.99950
C         63.49464       49.80638       23.84814
H         62.80626       44.60389       19.37828
H         61.17808       46.24921       21.09712
H         64.12925       46.56565       20.35811
H         63.42740       45.58393       21.65542
H         65.04706       48.58949       21.08268
H         61.64837       47.02022       23.23835
H         65.18174       50.46002       22.68338
H         61.79933       48.90861       24.82158
H         63.56150       50.62861       24.54968
N         62.06521       47.85409       18.20654
C         61.60855       48.96144       17.37365
C         60.10564       48.91924       17.05052
O         59.45861       49.95269       17.07721
C         62.47151       48.82193       16.10685
C         63.73679       48.17251       16.64760
C         63.16373       47.12789       17.59676
H         61.86439       49.91363       17.88737
H         62.01815       48.08363       15.40834
H         62.63573       49.77775       15.56270
H         64.43267       47.77188       15.87877
H         64.28299       48.92695       17.26070
H         62.76125       46.26918       17.02769
H         63.95875       46.79680       18.28019
N         59.49379       47.73532       16.76121
C         58.05170       47.59507       16.49707
C         57.21643       47.96515       17.70694
O         56.25061       48.70349       17.56633
C         57.80372       46.15454       16.03967
C         56.34906       45.72439       15.75731
C         56.46999       44.49838       14.91260
O         57.02587       44.59792       13.83110
O         56.33024       43.27883       15.44665
H         60.07618       46.88480       16.75495
H         57.74896       48.23627       15.63934
H         58.22843       45.43018       16.76016
H         58.39872       46.08776       15.09935
H         55.78639       46.48687       15.18114
H         55.82011       45.51714       16.71511
N         57.55514       47.51217       18.93907
C         56.82055       47.85576       20.13245
H         55.79111       47.44522       20.08108
H         57.33532       47.42146       21.01735
H         56.79057       48.95896       20.25147
H         58.39118       46.94195       19.03831
Ca        58.13376       42.15001       14.80669
O         60.63771       41.16823       13.92399
H         60.77901       40.19799       14.03235
H         61.51070       41.56660       14.16046

Ca 1.70



