%chk=loop3.cluster17.chk
%nprocshared=48
%mem=10GB
%nosave
#b3lyp/svp scf=(tight,noincore) Test 
#IOP(5/87=12) Density=Current Pop=(MK,readradii) iop(6/33=2) iop(6/42=6)

loop3.cluster17 

   0  1 
C         48.01674       44.79169       43.87129
C         47.20905       45.00970       45.10638
O         47.71455       44.79114       46.19220
H         49.03177       44.42613       44.13895
H         47.51693       44.01815       43.25062
H         48.10266       45.73760       43.30122
N         45.91488       45.41253       45.02135
C         45.05783       45.43509       46.19216
C         44.42575       44.05706       46.31714
O         43.50694       43.73399       45.57639
C         44.04610       46.56900       46.05293
C         43.11329       46.68821       47.19738
O         42.20374       47.48365       47.11353
O         43.23985       45.92334       48.29480
H         45.49628       45.55730       44.08957
H         45.66585       45.64474       47.10370
H         43.43501       46.39659       45.14294
H         44.57880       47.54037       45.95082
N         45.00101       43.14360       47.14820
C         44.65993       41.72097       47.14995
C         43.45041       41.37403       47.99684
O         42.91749       40.28429       47.83469
C         45.89373       40.91530       47.63272
C         47.06435       40.98143       46.62396
C         47.04514       39.83882       45.58492
C         45.73338       39.69698       44.79873
N         45.76550       38.54889       43.89796
H         45.85202       43.43857       47.63936
H         44.37765       41.45588       46.11758
H         45.67149       39.85100       47.86190
H         46.20797       41.38167       48.59269
H         48.01605       40.85407       47.18451
H         47.11213       41.98092       46.13869
H         47.21276       38.88783       46.13514
H         47.89588       39.98410       44.88348
H         45.53135       40.62644       44.21970
H         44.91081       39.50685       45.51677
H         46.46121       38.70121       43.13421
H         45.99997       37.68200       44.43504
H         44.81337       38.42870       43.48106
N         42.95638       42.24647       48.91260
C         41.70522       42.03026       49.63206
C         40.71517       43.13708       49.27224
O         39.66474       43.22554       49.89338
C         41.98664       41.85282       51.13810
C         42.68720       42.97937       51.81900
O         42.60618       44.23982       51.35740
O         43.33488       42.74741       52.82701
H         43.45916       43.12718       49.07935
H         41.21945       41.07379       49.33422
H         42.65474       40.96327       51.21731
H         41.07140       41.61354       51.71712
N         40.95953       43.96843       48.20595
C         40.00968       44.94282       47.69978
C         39.62688       46.04648       48.66719
O         38.58299       46.64665       48.46354
H         41.81707       43.84829       47.65394
H         39.09334       44.39557       47.39107
H         40.42008       45.41523       46.78060
N         40.38784       46.34984       49.76068
C         39.90198       47.26747       50.79977
C         40.03979       48.75709       50.45387
O         39.53646       49.59160       51.19552
C         40.56684       46.91341       52.14642
C         41.94813       47.48890       52.33972
N         42.24742       48.15297       53.48183
O         42.80493       47.33737       51.48312
H         41.25252       45.81986       49.92436
H         38.82594       47.02429       50.93888
H         40.61369       45.80535       52.22819
H         39.91946       47.26857       52.97376
H         41.54723       48.24375       54.23329
H         43.19021       48.53896       53.63360
N         40.74501       49.15524       49.35969
C         40.95882       50.53031       48.94096
C         42.43390       50.91026       48.90104
O         42.74215       51.99281       48.43385
H         41.16873       48.43392       48.78968
H         40.42888       51.25772       49.59273
H         40.55504       50.63310       47.91010
N         43.39164       50.08412       49.42675
C         44.80179       50.45745       49.50382
C         45.69932       49.35660       49.00372
O         45.44856       48.19166       49.25838
C         45.17373       50.73223       50.97579
C         44.44087       51.95447       51.43915
C         44.74774       53.20746       50.88226
C         43.41332       51.84573       52.38343
C         44.00233       54.33128       51.23424
C         42.66308       52.96966       52.72851
C         42.94467       54.21318       52.14123
O         42.19421       55.29324       52.43082
H         43.11247       49.20683       49.87238
H         45.01803       51.37519       48.91657
H         46.26760       50.90011       51.10370
H         44.88934       49.84449       51.57924
H         45.55059       53.30588       50.16026
H         43.17155       50.88678       52.82207
H         44.23153       55.28814       50.78268
H         41.85154       52.86942       53.43627
H         41.41391       55.22708       52.99890
N         46.90399       49.71699       48.48702
C         47.99452       48.77779       48.30368
C         48.88291       48.87777       49.52538
O         49.16102       49.96667       50.00185
C         48.76625       49.11088       46.99972
C         47.87966       48.74371       45.78610
C         50.12093       48.36827       46.94054
C         48.41179       49.27945       44.46002
H         47.12194       50.71955       48.40444
H         47.62980       47.73027       48.22691
H         48.98294       50.20203       46.99634
H         46.86510       49.17482       45.91873
H         47.77386       47.63930       45.72840
H         50.76944       48.67613       47.78864
H         49.97452       47.26796       46.98909
H         50.68738       48.62585       46.02630
H         49.40887       48.86517       44.21300
H         47.71098       48.99535       43.64722
H         48.47092       50.38759       44.50531
N         49.42644       47.73809       50.02400
C         50.39237       47.70353       51.10058
C         51.69434       47.18233       50.53279
O         51.71811       46.65945       49.43212
C         49.85067       46.82107       52.24683
O         50.87344       46.49362       53.14841
H         49.23369       46.85648       49.54596
H         50.59545       48.72167       51.49165
H         49.40989       45.88127       51.84561
H         49.04591       47.38874       52.76830
H         50.44001       46.20602       53.99164
N         52.84474       47.35092       51.22999
C         54.13389       46.87141       50.74594
C         54.14855       45.35783       50.60884
O         54.89231       44.83156       49.79356
C         55.21363       47.29972       51.74024
H         52.79904       47.85311       52.12906
H         54.35321       47.33231       49.75559
H         54.98027       46.88441       52.74572
H         56.21566       46.94745       51.42344
H         55.22714       48.40882       51.81520
N         53.39099       44.59787       51.44388
C         53.36682       43.14226       51.41303
C         52.63836       42.63935       50.18189
O         53.05323       41.65291       49.58695
C         52.66673       42.64577       52.68080
H         52.82073       45.07530       52.15506
H         54.40550       42.74790       51.45336
H         51.59312       42.93121       52.68505
H         52.76525       41.54525       52.77702
H         53.15668       43.11401       53.56403
N         51.52434       43.28917       49.74787
C         50.78305       42.90972       48.55198
C         51.68087       43.10536       47.34032
O         51.86967       42.17680       46.56870
C         49.48612       43.74309       48.44369
C         48.60637       43.55159       49.69386
C         47.36518       44.37825       49.71866
O         46.20600       43.78367       49.97223
O         47.40620       45.59070       49.67368
H         51.21800       44.11953       50.27499
H         50.46178       41.84518       48.62393
H         48.92681       43.37997       47.56265
H         49.72989       44.82048       48.31840
H         49.15208       43.83013       50.61180
H         48.32221       42.48104       49.78319
N         52.31493       44.29715       47.15483
C         53.27884       44.52119       46.10114
H         54.16810       43.87363       46.26051
H         52.82806       44.31936       45.10944
H         53.61888       45.58025       46.13272
H         52.14133       45.06135       47.81120
Ca        44.47944       45.04720       50.52023
O         46.07136       47.71173       52.33934
H         46.70527       48.46547       52.43442
H         45.97309       47.36817       53.26059
O         44.06669       45.82077       53.61357
H         44.33997       45.95665       54.55285
H         43.57027       44.97158       53.63268
O         46.41002       43.96047       52.59131
H         45.92658       44.13802       53.43236
H         47.26847       43.55652       52.86911

Ca 1.70



