%chk=loop4.cluster157.chk
%nprocshared=48
%mem=10GB
%nosave
#b3lyp/svp scf=(tight,noincore) Test 
#IOP(5/87=12) Density=Current Pop=(MK,readradii) iop(6/33=2) iop(6/42=6)

loop4.cluster157 

   -3  1 
C         82.80985       21.77098       60.35244
C         83.91056       20.85004       60.80661
O         85.05535       21.26819       60.88162
H         81.99852       21.77387       61.11341
H         83.17687       22.81384       60.24207
H         82.38825       21.42716       59.38540
N         83.60420       19.57753       61.18730
C         84.55559       18.62382       61.76646
C         85.23779       19.22425       62.99017
O         86.46133       19.24381       63.05603
C         85.60887       18.11446       60.75044
C         85.05360       17.61609       59.44849
O         85.82491       17.31778       58.55110
O         83.72000       17.57401       59.24254
H         82.61646       19.28397       61.12958
H         83.96473       17.74044       62.09663
H         86.19864       17.29823       61.22739
H         86.29926       18.94699       60.50226
N         84.49271       19.76717       63.99162
C         85.08325       20.37423       65.17979
C         84.57160       19.63875       66.41028
O         83.36821       19.63788       66.62670
C         84.75061       21.90295       65.21475
C         85.58544       22.60501       64.10901
C         85.01306       22.52598       66.60198
C         85.36330       24.10863       63.96306
H         83.46440       19.76777       63.90134
H         86.18272       20.30260       65.14231
H         83.66549       22.04478       65.00981
H         85.32249       22.14524       63.14144
H         86.67133       22.43775       64.28796
H         86.06927       22.39746       66.91346
H         84.74902       23.60334       66.60816
H         84.35350       22.05763       67.36410
H         85.73797       24.65774       64.85121
H         85.93893       24.46784       63.08203
H         84.28933       24.33256       63.80078
N         85.40337       19.02129       67.30697
C         86.85123       18.88393       67.13403
C         87.12995       17.81419       66.08901
O         88.18831       17.83796       65.47534
C         87.53349       18.48605       68.45856
C         87.09723       19.38319       69.58593
O         87.46770       20.54502       69.63646
O         86.23200       18.91686       70.50764
H         84.97420       18.60261       68.14550
H         87.29584       19.86753       66.86667
H         88.64517       18.51390       68.36669
H         87.23856       17.44749       68.71058
N         86.21329       16.81797       65.85695
C         86.40793       15.78810       64.85855
C         87.60006       14.94799       65.21599
O         87.56956       14.25052       66.22025
H         85.33729       16.78945       66.39727
H         86.53479       16.27956       63.87058
H         85.50763       15.13610       64.79236
N         88.69857       14.97962       64.41848
C         89.92881       14.25851       64.71814
C         91.18912       15.12707       64.56464
O         92.27027       14.62564       64.84658
C         89.99034       12.98938       63.84553
C         89.62412       13.22565       62.40051
O         90.27867       14.12979       61.66033
O         88.69412       12.61290       61.90319
H         88.64620       15.51815       63.54239
H         89.93092       13.91309       65.77797
H         89.25231       12.26088       64.25028
H         90.99450       12.52371       63.93649
N         91.14390       16.43389       64.15804
C         92.33581       17.26770       64.03975
C         93.20937       16.98193       62.82021
O         94.17133       17.70575       62.61671
H         90.23929       16.88486       63.96977
H         92.92167       17.23178       64.98260
H         91.99431       18.31846       63.90472
N         92.86964       16.01755       61.91321
C         93.49726       15.87031       60.59966
C         93.44103       17.19271       59.87383
O         94.47196       17.73052       59.48077
C         94.89259       15.21582       60.64968
C         94.77853       13.74613       61.09872
C         96.07959       12.98554       61.02975
N         96.16218       11.75077       61.57580
O         97.05862       13.47227       60.48194
H         92.05488       15.44396       62.09945
H         92.87312       15.17754       59.99008
H         95.58143       15.77946       61.31559
H         95.31278       15.22108       59.61859
H         94.05081       13.20193       60.45246
H         94.40067       13.72867       62.14086
H         95.35082       11.34029       62.06158
H         97.04482       11.22014       61.53831
N         92.22549       17.75923       59.63320
C         92.05442       19.00613       58.90325
C         91.67613       18.72669       57.46887
O         91.10707       17.67949       57.17215
C         91.01566       19.96312       59.55949
C         89.62854       19.30904       59.72724
C         91.50752       20.51385       60.90151
H         91.38772       17.22455       59.91021
H         93.03188       19.53949       58.85555
H         90.89211       20.84168       58.88707
H         89.65786       18.44739       60.42547
H         88.90575       20.04138       60.14276
H         89.23729       18.96386       58.74746
H         92.45413       21.07681       60.75425
H         90.75566       21.22474       61.30995
H         91.67382       19.70218       61.63894
N         92.06455       19.60018       56.50329
C         91.85410       19.38441       55.08492
C         91.41075       20.66959       54.43174
O         92.09287       21.68056       54.57249
C         93.16546       18.89147       54.45596
C         93.07565       18.79905       52.94958
N         92.08787       18.09186       52.35024
O         93.89284       19.39444       52.26408
H         92.62263       20.42345       56.78839
H         91.08955       18.59260       54.91655
H         93.39737       17.89057       54.88026
H         93.99638       19.58094       54.72732
H         91.37183       17.60337       52.90574
H         92.02483       18.05967       51.32239
N         90.28274       20.70265       53.67356
C         89.81892       21.92063       53.02471
C         88.39855       21.69122       52.50572
O         88.10897       21.96998       51.35111
C         90.81320       22.30893       51.88350
C         90.65316       23.72667       51.39977
C         91.04440       24.79347       52.22714
C         90.15067       23.99742       50.11747
C         90.91573       26.11307       51.78500
C         90.00546       25.31901       49.68445
C         90.38211       26.38116       50.52034
O         90.23036       27.65913       50.11828
H         89.72695       19.83490       53.58436
H         89.77137       22.70983       53.80804
H         90.68885       21.57615       51.05523
H         91.87148       22.21947       52.20423
H         91.46155       24.59924       53.20812
H         89.85843       23.18779       49.46105
H         91.22530       26.92799       52.42786
H         89.59996       25.51766       48.70069
H         89.81950       27.87866       49.26982
N         87.47447       21.09566       53.32103
C         86.14900       20.71334       52.85394
C         85.22900       21.92568       52.79473
O         84.68987       22.16390       51.72291
C         85.63425       19.45555       53.59682
C         84.28326       18.96466       53.04816
C         83.94271       17.59964       53.57717
O         84.64492       16.64102       53.29405
O         82.84453       17.41974       54.33334
H         87.76049       20.80777       54.26812
H         86.25105       20.32636       51.81125
H         85.55450       19.59615       54.69076
H         86.39474       18.65836       53.42171
H         84.31040       18.89276       51.93891
H         83.49581       19.69357       53.33466
N         85.03397       22.80750       53.82703
C         85.52648       22.66879       55.19820
C         86.75275       23.51932       55.47834
O         87.22583       24.23136       54.60335
C         84.40615       23.13628       56.16955
C         83.10513       22.33933       56.01793
C         83.31053       20.89338       56.36799
O         82.41881       19.95463       56.01571
O         84.24432       20.56757       57.08516
H         84.45890       23.63999       53.62332
H         85.81788       21.62695       55.40726
H         84.19094       24.21143       55.97741
H         84.73692       23.05893       57.22693
H         82.70779       22.45387       54.98778
H         82.34911       22.75678       56.71910
N         87.31595       23.48360       56.72314
C         88.43150       24.31951       57.10466
H         89.30411       24.12888       56.44821
H         88.13632       25.38937       57.05316
H         88.71805       24.09339       58.15598
H         86.92719       22.84989       57.43739
Ca        82.71461       18.12884       57.29143
O         84.07908       15.60689       56.56267
H         84.56488       15.62700       57.42192
H         84.77901       15.40065       55.89539

Ca 1.70



