%chk=loop4.cluster6.chk
%nprocshared=48
%mem=10GB
%nosave
#b3lyp/svp scf=(tight,noincore) Test 
#IOP(5/87=12) Density=Current Pop=(MK,readradii) iop(6/33=2) iop(6/42=6)

loop4.cluster6 

   -3  1 
C         95.54578       80.69788       46.52674
C         96.72373       79.97604       47.11983
O         96.77402       78.77423       46.99394
H         94.62628       80.37928       47.06260
H         95.65172       81.79662       46.61669
H         95.42740       80.43938       45.45006
N         97.71656       80.65423       47.77583
C         98.90252       80.05544       48.42775
C         99.86621       79.32730       47.48939
O        100.86490       78.79497       47.95651
C         98.57248       79.16877       49.66953
C         97.93495       77.83052       49.37367
O         96.93379       77.48830       49.97531
O         98.37163       77.11676       48.31473
H         97.62781       81.67925       47.82763
H         99.48537       80.90840       48.83902
H         97.94782       79.75163       50.38177
H         99.53671       78.95766       50.17633
N         99.64162       79.28721       46.15446
C        100.48986       78.55614       45.22009
C        100.38857       77.05047       45.37898
O         99.38245       76.53520       45.83136
C        100.21952       78.97238       43.74559
C        100.97521       80.28703       43.47561
C         98.71282       79.08090       43.41524
C        100.84184       80.78360       42.04714
H         98.86491       79.83437       45.79553
H        101.55198       78.79829       45.45378
H        100.65951       78.19428       43.08104
H        102.05748       80.09768       43.65811
H        100.63774       81.07988       44.17759
H         98.53926       79.15746       42.32472
H         98.18732       78.19121       43.80886
H         98.24406       79.99202       43.84682
H        101.16166       79.98849       41.34412
H         99.79512       81.08321       41.83658
H        101.49649       81.66925       41.91553
N        101.46066       76.28852       45.03431
C        101.52523       74.83970       45.20333
C        101.25907       74.41317       46.64874
O        101.65378       75.12510       47.56029
C        102.89823       74.28106       44.74083
C        104.09175       75.04766       45.26624
O        104.49585       76.03294       44.66591
O        104.79193       74.58365       46.31628
H        102.27391       76.78049       44.64806
H        100.74087       74.39968       44.55525
H        102.95292       74.29662       43.63194
H        102.98663       73.21338       45.04051
N        100.59038       73.25503       46.95106
C        100.11095       72.31698       45.94679
C         98.67324       72.60903       45.57996
O         98.07653       73.49164       46.18003
H        100.40744       73.02892       47.94144
H        100.17701       71.28643       46.35132
H        100.78128       72.32246       45.06851
N         98.01737       71.92812       44.59944
C         98.65653       70.98611       43.68758
C         97.93157       71.09761       42.35625
O         96.77130       70.71665       42.29928
C         98.60060       69.54992       44.27372
C         99.19383       68.47057       43.40001
O         99.68451       68.73398       42.31363
O         99.17719       67.19275       43.82690
H         97.04345       72.20870       44.40227
H         99.71201       71.26046       43.54104
H         97.54287       69.27885       44.48064
H         99.14890       69.52923       45.23840
N         98.50248       71.64554       41.23952
C         99.83768       72.20912       41.16841
C        100.19356       72.57574       39.73200
O        101.20572       72.10607       39.23756
H         97.92778       71.71331       40.39895
H        100.58408       71.46255       41.51410
H         99.88268       73.10876       41.81871
N         99.36276       73.36221       38.98627
C         99.62116       73.68863       37.58003
C         99.49309       75.18551       37.30685
O         99.48144       75.55662       36.13514
C         98.65741       72.88278       36.67911
C         99.01188       71.38856       36.60858
C         98.06573       70.71314       35.64761
N         97.10848       69.87790       36.10138
O         98.14056       70.95420       34.45182
H         98.47564       73.68487       39.40042
H        100.64649       73.40801       37.26003
H         98.72040       73.26243       35.63607
H         97.61110       73.00108       37.03802
H         98.93705       70.94481       37.62331
H        100.05646       71.23487       36.24815
H         97.02488       69.68650       37.10082
H         96.42846       69.45329       35.45618
N         99.40155       76.11484       38.30575
C         99.26917       77.54291       38.03391
C         97.86860       77.96957       38.34324
O         97.36923       77.70954       39.43518
C        100.27064       78.42172       38.82081
C        100.05954       79.91433       38.46459
C        101.71553       78.02873       38.50684
H         99.40192       75.80927       39.29239
H         99.45869       77.75055       36.95507
H        100.10011       78.28976       39.91177
H        100.78325       80.56206       38.99772
H        100.17699       80.07960       37.37043
H         99.04290       80.25781       38.75448
H        102.41188       78.67452       39.08349
H        101.89893       76.97455       38.79917
H        101.92850       78.14925       37.42262
N         97.18282       78.68958       37.42302
C         95.80604       79.08202       37.60075
C         94.95162       77.83267       37.52273
O         94.07025       77.67882       38.34055
C         95.44431       80.14646       36.56157
C         94.04031       80.65213       36.73546
N         93.15391       80.55579       35.72137
O         93.70243       81.16303       37.79428
H         97.66115       78.95295       36.54387
H         95.68680       79.56853       38.59872
H         95.60000       79.74234       35.53943
H         96.13577       81.00955       36.70044
H         93.43279       80.13375       34.82366
H         92.19316       80.90774       35.83428
N         95.28005       76.82810       36.65067
C         94.69278       75.48556       36.71578
C         94.86801       74.85069       38.08487
O         95.88102       75.04692       38.74372
C         95.38507       74.53932       35.72235
C         94.90296       74.67391       34.31082
C         95.69808       75.30440       33.34895
C         93.67983       74.09028       33.93174
C         95.28417       75.34501       32.01684
C         93.27499       74.11673       32.59481
C         94.07818       74.73854       31.63261
O         93.69277       74.73952       30.34141
H         96.03938       76.99508       35.97484
H         93.60297       75.53409       36.49488
H         95.20827       73.47257       35.99120
H         96.48224       74.69557       35.79832
H         96.63924       75.75711       33.63253
H         93.06198       73.58314       34.66513
H         95.90926       75.83234       31.28139
H         92.34718       73.63839       32.30362
H         94.24295       75.13583       29.65077
N         93.87498       74.03670       38.54569
C         93.81755       73.37273       39.84419
C         93.62642       74.31723       41.03022
O         93.26504       73.83043       42.09033
C         94.91354       72.30830       40.06710
C         94.86481       71.22522       38.96943
C         95.66195       69.99204       39.31078
O         95.03791       68.80964       39.45753
O         96.87167       70.03644       39.41318
H         93.07545       73.86852       37.91522
H         92.86013       72.80271       39.82748
H         94.68233       71.81174       41.03566
H         95.91781       72.77108       40.14159
H         95.20171       71.65013       37.99864
H         93.81303       70.88885       38.85477
N         93.71711       75.67543       40.89826
C         93.22086       76.59686       41.91358
C         91.91346       77.22771       41.44481
O         91.20919       77.78726       42.27518
C         94.23872       77.71845       42.20925
C         95.61668       77.22289       42.67045
C         95.62188       76.55541       44.02739
O         96.78320       76.12736       44.56066
O         94.61098       76.53066       44.71021
H         94.03477       76.07819       40.02393
H         92.98647       76.04085       42.84317
H         93.82434       78.41051       42.97787
H         94.38852       78.31257       41.27885
H         96.25181       78.12847       42.74352
H         96.06183       76.56094       41.90022
N         91.53637       77.21484       40.12864
C         90.30262       77.79706       39.65269
H         89.58357       77.98344       40.47507
H         90.52320       78.74687       39.12067
H         89.83241       77.09503       38.93183
H         92.15183       76.81729       39.41285
Ca        96.89551       76.23468       46.81648
O         96.82455       74.33180       48.93356
H         97.37097       73.51729       49.06438
H         96.45308       74.53700       49.82755
O         94.63124       76.76379       48.35906
H         94.76061       77.43144       49.07551
H         93.99506       76.11349       48.74454
O         94.71711       73.59395       46.32063
H         93.94885       74.06278       45.90851
H         95.17788       73.16281       45.55856

Ca 1.70



