%chk=loop2.cluster47.chk
%nprocshared=48
%mem=10GB
%nosave
#b3lyp/svp scf=(tight,noincore) Test 
#IOP(5/87=12) Density=Current Pop=(MK,readradii) iop(6/33=2) iop(6/42=6)

loop2.cluster47 

   -2  1 
C         59.18025       28.91466        9.57284
C         59.41428       29.16722        8.13290
O         58.83169       28.50014        7.31909
H         58.09629       28.75700        9.75501
H         59.76725       28.03066        9.87682
H         59.50359       29.80165       10.15237
N         60.24294       30.15856        7.75014
C         60.42479       30.58465        6.36759
C         61.16066       29.56690        5.48859
O         61.03657       29.61650        4.26960
C         61.16599       31.90946        6.45438
C         61.10578       32.66206        5.18559
O         62.22909       33.10568        4.61234
O         60.03497       32.90870        4.67682
H         60.71682       30.68016        8.49963
H         59.41566       30.76063        5.93767
H         62.21318       31.71783        6.77212
H         60.67428       32.53119        7.24335
N         61.87789       28.56294        6.08333
C         62.47901       27.39960        5.42187
C         61.43132       26.51290        4.77224
O         61.76419       25.58651        4.04594
C         63.67163       27.73439        4.51872
H         61.92873       28.57161        7.10529
H         62.90542       26.76586        6.22540
H         64.45358       28.30818        5.06016
H         64.16154       26.77945        4.21067
H         63.36021       28.31601        3.63559
N         60.12330       26.71725        5.06712
C         59.02105       25.88577        4.66432
C         58.85459       25.76301        3.15996
O         58.09358       24.93441        2.69273
C         59.06126       24.56205        5.42708
C         57.68084       24.08030        5.77514
O         57.57108       22.98051        6.28903
O         56.63557       24.96352        5.78670
H         59.87994       27.48159        5.67870
H         58.15089       26.42957        5.02545
H         59.59785       24.69451        6.40178
H         59.60953       23.81313        4.83180
N         59.53606       26.59437        2.33573
C         59.35084       26.62177        0.89849
C         60.33359       27.57685        0.26745
O         61.44842       27.69518        0.76296
H         60.17545       27.27491        2.75202
H         58.31117       26.93913        0.67538
H         59.52227       25.62075        0.44496
N         60.00817       28.24649       -0.87810
C         60.98582       29.05213       -1.61231
C         60.68104       30.54623       -1.65164
O         61.62747       31.31974       -1.71268
C         61.25783       28.45908       -3.00793
C         60.11076       28.42617       -3.98551
N         60.24881       27.72698       -5.13607
O         59.06633       29.01614       -3.75421
H         59.06111       28.12766       -1.26442
H         61.96099       28.98327       -1.08589
H         61.61402       27.41058       -2.87540
H         62.06545       29.04532       -3.48305
H         61.12380       27.21724       -5.33225
H         59.47617       27.66908       -5.81414
N         59.40540       31.03099       -1.54959
C         59.10357       32.46155       -1.39942
C         58.87044       32.75083        0.06698
O         59.68074       33.40867        0.70594
H         58.62766       30.36020       -1.49766
H         58.18085       32.70637       -1.96250
H         59.93533       33.08029       -1.79006
N         57.81199       32.15644        0.67188
C         57.80898       31.74369        2.07035
C         56.63535       32.26122        2.90857
O         55.49415       32.24756        2.47067
C         57.88422       30.17881        1.99711
C         57.72727       29.42014        3.31231
O         56.96833       29.67972        1.04154
H         57.10584       31.73205        0.05706
H         58.72873       32.09379        2.58613
H         58.90041       29.94067        1.61356
H         56.43444       28.93144        1.40915
H         58.44694       29.72962        4.08418
H         56.68123       29.51653        3.65550
H         57.88952       28.34953        3.08540
N         56.88936       32.67425        4.19099
C         55.89220       33.06562        5.17874
C         55.06741       31.89723        5.68155
O         55.31116       30.76134        5.32329
C         56.57521       33.86588        6.34143
C         55.54599       34.70349        7.13487
C         57.44682       33.02622        7.29330
C         56.05272       36.07032        7.49890
H         57.85690       32.72607        4.48203
H         55.21368       33.77804        4.67104
H         57.24241       34.57267        5.80734
H         55.17347       34.14442        8.03344
H         54.67542       34.94780        6.49049
H         58.21854       33.67765        7.75532
H         56.83763       32.57824        8.10772
H         57.93635       32.19252        6.75913
H         55.17538       36.66725        7.81316
H         56.82589       35.97480        8.27859
H         56.45250       36.60326        6.61086
N         54.01356       32.16249        6.48651
C         53.00586       31.23634        6.94307
C         51.85702       32.06588        7.56402
O         51.76505       33.27505        7.37323
C         53.57356       30.09665        7.86164
C         52.84274       28.72875        7.66050
O         53.41533       27.66021        7.05882
O         51.71227       28.56733        8.05063
H         53.84697       33.12563        6.69405
H         52.59191       30.77104        6.02728
H         53.54941       30.46590        8.91282
H         54.64861       29.94857        7.63771
N         50.89517       31.43221        8.24277
C         49.61254       31.96097        8.58665
C         48.66071       30.74914        8.54736
O         48.12583       30.53602        7.46830
C         49.76148       32.90078        9.76897
C         48.45808       33.40403       10.31139
C         47.37855       33.74960        9.47602
C         48.30466       33.46604       11.70066
C         46.14495       34.08950       10.04295
C         47.08016       33.81073       12.26003
C         45.99425       34.10857       11.43113
H         51.03445       30.48169        8.44914
H         49.29566       32.59484        7.72971
H         50.36351       33.74707        9.39250
H         50.35483       32.39244       10.56464
H         47.47689       33.71752        8.39821
H         49.13823       33.21745       12.34490
H         45.29458       34.32032        9.41419
H         46.97769       33.82384       13.33674
H         45.03256       34.35306       11.85763
N         48.56160       29.78616        9.53437
C         48.65249       30.07844       10.95540
C         49.99353       29.85797       11.60400
O         50.16058       30.24050       12.75631
C         47.66455       29.06980       11.58579
C         46.88966       28.48189       10.41024
C         47.87649       28.53563        9.29267
H         48.22861       31.05886       11.14722
H         48.22105       28.22957       12.06307
H         46.97701       29.51340       12.33332
H         46.54522       27.44621       10.60343
H         46.05721       29.15501       10.11051
H         48.60173       27.70389        9.43381
H         47.38962       28.42256        8.30061
N         50.94962       29.12758       10.96748
C         52.12854       28.61246       11.64879
C         53.29910       29.52765       11.44487
O         54.41332       29.09844       11.16748
C         52.36909       27.10415       11.41617
C         51.12757       26.22804       11.69894
C         50.52655       26.41637       13.06841
O         51.28602       26.84146       14.09606
O         49.38733       26.03604       13.28539
H         50.77569       28.86384       10.00884
H         51.95453       28.69458       12.73036
H         53.17206       26.78866       12.11565
H         52.71738       26.91306       10.37643
H         51.43427       25.16532       11.62531
H         50.34207       26.39948       10.92915
N         53.08761       30.84721       11.67966
C         54.12072       31.80301       11.91981
H         55.00161       31.63970       11.27986
H         53.68716       32.81251       11.75052
H         54.37991       31.73309       12.99893
H         52.14210       31.15540       11.90503
Ca        54.49839       25.87183        6.03671
O         51.96470       25.35970        4.82659
H         51.52946       25.88723        4.11154
H         51.46951       24.50373        4.84479
O         56.21393       27.73304        5.99226
H         55.90507       28.65527        5.93963
H         57.16833       27.83455        6.11721
O         55.49908       25.65872        8.46072
H         55.39833       26.17226        9.29600
H         55.19286       24.74784        8.69037
O         53.87151       27.44153        3.77020
H         53.98969       26.98496        2.90152
H         53.91223       28.40303        3.54848
O         54.50195       23.06908        5.66762
H         53.98338       22.41947        6.19183
H         55.40864       22.81808        5.92377
O         53.02745       24.45601        7.89317
H         52.76263       23.51015        7.99286
H         52.29734       24.98833        8.29068
O         55.16790       24.88311        3.19485
H         56.07115       24.90301        3.56730
H         55.17668       24.07554        2.63133

Ca 1.70



