%chk=loop3.cluster161.chk
%nprocshared=48
%mem=10GB
%nosave
#b3lyp/svp scf=(tight,noincore) Test 
#IOP(5/87=12) Density=Current Pop=(MK,readradii) iop(6/33=2) iop(6/42=6)

loop3.cluster161 

   0  1 
C        106.91340      -27.13065       66.58098
C        106.54196      -28.20337       65.60689
O        105.37824      -28.30596       65.24273
H        107.71183      -26.50071       66.13915
H        106.03424      -26.49348       66.81422
H        107.28391      -27.58837       67.52330
N        107.49273      -29.06954       65.15882
C        107.19178      -30.16685       64.25385
C        107.24229      -31.41230       65.11018
O        108.32702      -31.86969       65.44641
C        108.19576      -30.15528       63.08264
C        107.83605      -31.10342       61.97724
O        106.62231      -31.68632       61.94256
O        108.62042      -31.28655       61.06063
H        108.45443      -28.98510       65.52616
H        106.16476      -30.04721       63.84222
H        109.20931      -30.39066       63.47438
H        108.23810      -29.14004       62.62908
N        106.10557      -31.79753       65.75769
C        106.12935      -32.60920       66.97382
C        106.39421      -34.09693       66.75742
O        106.53692      -34.81113       67.73687
C        104.81411      -32.42279       67.76043
C        104.56097      -30.95180       68.15811
C        103.26090      -30.83297       68.96620
C        103.04035      -29.42409       69.54322
N        103.83810      -29.20275       70.75316
H        105.22714      -31.32327       65.49737
H        106.94712      -32.22094       67.62319
H        104.88450      -33.01178       68.70067
H        103.96101      -32.81056       67.16115
H        104.45566      -30.29947       67.26266
H        105.43033      -30.58758       68.74111
H        103.24014      -31.56490       69.80211
H        102.42738      -31.07486       68.27179
H        101.96980      -29.32599       69.82616
H        103.25965      -28.64966       68.77403
H        103.50258      -29.84530       71.50911
H        104.85463      -29.36901       70.58460
H        103.70197      -28.21928       71.08053
N        106.49190      -34.62366       65.50769
C        106.83919      -36.03204       65.27617
C        108.34207      -36.24459       65.13521
O        108.76048      -37.39367       65.02427
C        106.08468      -36.63199       64.05973
C        106.27055      -35.94602       62.74855
O        106.80929      -34.73505       62.67767
O        105.87721      -36.47721       61.72336
H        106.39204      -33.98856       64.71771
H        106.52260      -36.63882       66.15159
H        104.99476      -36.64690       64.24105
H        106.43856      -37.67749       63.92577
N        109.22656      -35.20580       65.13990
C        110.64975      -35.39969       64.93753
C        110.98728      -35.76890       63.50836
O        112.15200      -36.01894       63.23664
H        108.89002      -34.24587       65.27682
H        111.02721      -36.17166       65.64485
H        111.18737      -34.45084       65.15027
N        110.03323      -35.75251       62.52446
C        110.33077      -36.06077       61.13975
C        110.41037      -34.70511       60.35167
O        109.25033      -33.97582       60.04977
C        109.33114      -37.14377       60.64709
C        109.70581      -37.86369       59.37238
N        108.84439      -38.75172       58.81772
O        110.79662      -37.68063       58.85697
H        109.07783      -35.46854       62.74592
H        111.34488      -36.51327       61.09457
H        108.32844      -36.68442       60.56234
H        109.25428      -37.94683       61.41694
H        107.92421      -38.93113       59.24692
H        109.09191      -39.24902       57.94901
N        111.25294      -34.76171       59.16767
C        111.17322      -33.55141       58.30924
C        110.69321      -33.93138       56.92490
O        110.71431      -33.09595       56.03305
H        112.23941      -34.97604       59.43567
H        112.18587      -33.10748       58.23263
H        110.53682      -32.73064       58.71169
N        110.31118      -35.21268       56.66468
C        110.21251      -35.77177       55.33099
C        108.86872      -35.50415       54.65610
O        107.83466      -35.93606       55.13531
C        110.58705      -37.26349       55.43972
C        110.41639      -38.05682       54.18107
C        109.75746      -39.29163       54.25377
C        110.89692      -37.59662       52.94350
C        109.56373      -40.05415       53.10813
C        110.68067      -38.35461       51.78924
C        110.01037      -39.58654       51.87066
O        109.78875      -40.32603       50.76720
H        110.30031      -35.87821       57.43910
H        111.02557      -35.32169       54.71958
H        109.97303      -37.73498       56.23678
H        111.64911      -37.32149       55.77183
H        109.40244      -39.66802       55.20596
H        111.41236      -36.64732       52.86590
H        109.05795      -41.00695       53.18450
H        111.02945      -37.98435       50.83398
H        110.06320      -40.02512       49.89054
N        108.86475      -34.81678       53.47998
C        107.71910      -34.37407       52.68031
C        106.76309      -35.41487       52.12682
O        106.70994      -36.55544       52.56518
C        106.92151      -33.16351       53.29410
C        107.83810      -32.00887       53.73334
C        105.94678      -33.55037       54.41734
C        108.61627      -31.39622       52.56456
H        109.78563      -34.53880       53.10809
H        108.18992      -33.98343       51.75633
H        106.26271      -32.73294       52.51227
H        108.53560      -32.36358       54.51836
H        107.21166      -31.19608       54.16185
H        105.35389      -32.65616       54.71242
H        105.21616      -34.30704       54.05787
H        106.46586      -33.93158       55.31171
H        109.27730      -32.13318       52.06781
H        107.90982      -30.98073       51.81341
H        109.25783      -30.57549       52.94098
N        105.90730      -34.97427       51.15990
C        104.76902      -35.67933       50.60140
C        104.68712      -35.54344       49.07085
O        103.78327      -36.11932       48.48251
C        103.53244      -34.96295       51.17034
O        103.59924      -33.59679       50.83868
H        106.00933      -33.99467       50.87582
H        104.77069      -36.75063       50.90613
H        103.54182      -35.07975       52.27764
H        102.59618      -35.39231       50.76006
H        103.03802      -33.10244       51.48653
N        105.54776      -34.73099       48.38127
C        105.47000      -34.39658       46.96379
C        104.08065      -34.40318       46.30533
O        103.88206      -35.18621       45.38618
C        106.48925      -35.25403       46.20921
H        106.33286      -34.29202       48.87412
H        105.83182      -33.34918       46.86035
H        106.60273      -34.87353       45.17163
H        107.48021      -35.19854       46.70925
H        106.16206      -36.31471       46.18117
N        103.08254      -33.51585       46.62226
C        103.10935      -32.55779       47.72560
C        103.07183      -31.12032       47.23854
O        102.67344      -30.90056       46.10410
C        101.79737      -32.74211       48.50199
H        102.23004      -33.53723       46.03930
H        103.99734      -32.73650       48.35013
H        100.93882      -32.49100       47.83038
H        101.66620      -33.79101       48.82826
H        101.73732      -32.06643       49.37569
N        103.39007      -30.05333       48.03632
C        104.18474      -30.11564       49.26620
C        105.61899      -29.74565       48.91135
O        106.53209      -30.31737       49.48955
C        103.65074      -29.15725       50.35369
C        102.40893      -29.71354       51.06073
C        101.86952      -28.72700       52.05555
O        101.39189      -27.67133       51.67151
O        101.89830      -29.00672       53.37292
H        103.22115      -29.11748       47.63858
H        104.22746      -31.12836       49.71528
H        103.45992      -28.15747       49.90693
H        104.42401      -29.03161       51.14827
H        102.70789      -30.64292       51.59623
H        101.60772      -29.95859       50.33615
N        105.89188      -28.82626       47.93391
C        107.23163      -28.52424       47.48251
H        108.00057      -29.16079       47.96484
H        107.28448      -28.69122       46.38419
H        107.44854      -27.45748       47.68990
H        105.13092      -28.32599       47.46091
Ca       107.16560      -34.11334       60.66976
O        104.83603      -34.18838       58.33804
H        104.82406      -34.99693       57.76683
H        103.95751      -33.76127       58.17907
O        103.96564      -33.73107       61.39939
H        103.10464      -33.60198       60.92775
H        103.78204      -33.45874       62.33350
O        107.79715      -32.48130       58.03815
H        108.13786      -31.56047       57.91380
H        107.51614      -32.76792       57.13431
O        107.46807      -35.69020       58.32423
H        107.24948      -35.51817       57.38005
H        107.30108      -36.65669       58.43658

Ca 1.70



