%chk=loop2.cluster175.chk
%nprocshared=48
%mem=10GB
%nosave
#b3lyp/svp scf=(tight,noincore) Test 
#IOP(5/87=12) Density=Current Pop=(MK,readradii) iop(6/33=2) iop(6/42=6)

loop2.cluster175 

   -2  1 
C        110.13581       76.51018       67.77014
C        109.14645       76.17875       66.69194
O        109.01590       75.00705       66.36763
H        110.94541       77.14237       67.35409
H        109.63649       77.02240       68.61767
H        110.59119       75.57154       68.15927
N        108.36957       77.11880       66.08052
C        108.31243       78.53988       66.40316
C        108.53767       79.39747       65.13328
O        108.83633       78.85472       64.07828
C        106.93722       78.79745       67.09046
C        105.75978       78.51295       66.20237
O        105.28907       77.26578       66.03416
O        105.36846       79.38103       65.45085
H        107.70896       76.78620       65.37704
H        109.08856       78.82033       67.14584
H        106.85941       79.84824       67.43960
H        106.85510       78.16550       68.00051
N        108.37355       80.75471       65.17980
C        108.52625       81.68590       64.05060
C        107.80559       81.28995       62.75279
O        108.29749       81.58112       61.67084
C        109.98632       82.09850       63.84024
H        108.08135       81.16966       66.07638
H        108.02713       82.62466       64.38229
H        110.41634       82.45119       64.80275
H        110.59224       81.25662       63.45101
H        110.03726       82.94958       63.12371
N        106.55997       80.74884       62.81270
C        105.67987       80.57421       61.65686
C        104.24341       80.52510       62.16576
O        103.87008       79.60539       62.87536
C        106.07358       79.39106       60.73356
C        106.03836       78.04213       61.39742
O        104.85609       77.50771       61.79303
O        107.07293       77.40430       61.51396
H        106.17275       80.59821       63.74151
H        105.76444       81.49412       61.03928
H        107.10047       79.58225       60.35222
H        105.39331       79.35782       59.85497
N        103.42392       81.58476       61.94405
C        102.11756       81.71027       62.55830
C        101.07555       80.87056       61.88153
O        100.94888       80.93176       60.66871
H        103.78116       82.39081       61.41326
H        101.78624       82.75946       62.43719
H        102.17857       81.50481       63.65123
N        100.22379       80.12853       62.63912
C         99.12626       79.35899       62.06964
C         97.80564       79.90243       62.57610
O         97.78079       80.69071       63.50666
C         99.28681       77.90226       62.52583
C        100.60348       77.34891       62.06078
N        100.79973       77.05622       60.75706
O        101.50495       77.17483       62.86697
H        100.33281       80.13089       63.66299
H         99.12188       79.42611       60.95889
H         98.45556       77.24617       62.18598
H         99.27905       77.91191       63.63463
H        100.03464       77.17154       60.07652
H        101.70933       76.69370       60.43730
N         96.65393       79.49334       61.97890
C         95.33199       79.87705       62.44538
C         94.54513       78.60145       62.69302
O         94.53591       77.76844       61.80172
H         96.71638       78.87962       61.15537
H         94.82488       80.43956       61.63466
H         95.40254       80.55970       63.30480
N         93.85260       78.32626       63.83907
C         93.66434       79.21645       64.97845
C         94.32668       78.67061       66.23515
O         94.47940       79.43173       67.17780
C         92.15130       79.47932       65.16950
C         91.62925       80.36252       64.01605
O         91.47241       78.24388       65.23135
H         93.38414       77.40645       63.87997
H         94.14346       80.19649       64.83269
H         91.97474       80.03398       66.11594
H         90.55361       78.34904       64.87169
H         91.79700       79.88141       63.02926
H         90.54268       80.55599       64.13900
H         92.15052       81.34409       64.02912
N         94.78264       77.37778       66.30740
C         95.61626       76.87075       67.39441
C         95.02270       77.22822       68.75484
O         95.57846       78.08446       69.43212
C         97.07790       77.37366       67.21546
C         97.63205       77.16712       65.77753
C         98.01502       76.66741       68.22325
C         97.48457       75.74868       65.20378
H         94.58192       76.72441       65.54399
H         95.70154       75.76850       67.29736
H         97.12784       78.46780       67.41510
H         98.70873       77.43301       65.81491
H         97.15218       77.86902       65.05836
H         99.05142       77.05196       68.11751
H         97.70319       76.84084       69.27083
H         98.03179       75.57036       68.06155
H         96.46530       75.60082       64.78943
H         98.20626       75.60842       64.37278
H         97.67441       74.96071       65.95662
N         93.86110       76.69767       69.22199
C         93.13171       75.58634       68.61644
C         92.91371       74.46814       69.62961
O         93.12627       73.31302       69.28240
C         91.81419       76.03096       67.95500
C         90.78486       76.75082       68.78788
O         91.02010       77.10387       70.06188
O         89.71802       77.04959       68.27871
H         93.49429       77.10524       70.09027
H         93.69604       75.14118       67.77071
H         91.33999       75.11912       67.52706
H         92.07401       76.69645       67.10854
N         92.53041       74.73627       70.91678
C         92.34841       73.68819       71.91058
C         91.01393       72.97664       71.65459
O         90.25491       73.45398       70.82697
C         92.55907       74.29408       73.32796
C         91.41846       75.08014       73.94554
C         91.46539       76.48414       74.00396
C         90.34502       74.40895       74.56400
C         90.45886       77.19662       74.66860
C         89.35345       75.12368       75.23794
C         89.40996       76.51574       75.29250
H         92.44436       75.70461       71.23383
H         93.19677       72.98648       71.77467
H         93.46306       74.93997       73.26011
H         92.87403       73.53695       74.06567
H         92.28314       77.02484       73.54541
H         90.28491       73.33611       74.56372
H         90.50051       78.27664       74.71580
H         88.54902       74.59349       75.73283
H         88.64488       77.06523       75.82591
N         90.65427       71.82100       72.29800
C         91.43466       71.14838       73.30642
C         92.67349       70.48370       72.76989
O         92.92851       70.48643       71.57010
C         90.43149       70.15102       73.90558
C         89.53324       69.82111       72.72909
C         89.38579       71.17156       72.03200
H         91.74575       71.80390       74.12877
H         90.87018       69.27557       74.43137
H         89.79958       70.70882       74.63217
H         90.11099       69.14638       72.05981
H         88.56827       69.33336       72.98770
H         89.20212       70.99991       70.94884
H         88.57668       71.79567       72.46936
N         93.48509       69.85676       73.65213
C         94.62650       69.06074       73.25950
C         95.82493       69.87043       72.75016
O         96.29573       69.55133       71.66894
C         95.02633       68.11897       74.41218
C         95.71747       66.86403       73.86580
C         96.10366       65.93797       74.97551
O         95.43636       64.94168       75.20551
O         97.21285       66.18236       75.69694
H         93.20096       69.85586       74.64605
H         94.26160       68.39285       72.44548
H         94.09868       67.74693       74.90768
H         95.62708       68.65619       75.17656
H         96.61065       67.10480       73.25356
H         94.98131       66.34511       73.20825
N         96.43016       70.89059       73.44404
C         95.96677       71.48499       74.68473
H         95.01721       71.08123       75.05692
H         96.73261       71.35914       75.47737
H         95.82198       72.57629       74.51839
H         97.28269       71.30687       73.03620
Ca       104.37852       77.06859       63.98290
O        106.47106       75.40450       63.83175
H        106.67715       76.32995       63.55381
H        107.27455       74.89955       63.56803
O        103.62267       74.63184       62.49972
H        104.43401       74.07093       62.41528
H        102.92779       74.01657       62.84340
O        102.68399       75.19927       65.60408
H        102.13061       75.45861       66.38273
H        102.44820       74.25334       65.43486
O        102.09469       78.11643       65.91108
H        101.16340       78.44582       65.85016
H        102.35265       78.26388       66.85567

Ca 1.70



