%chk=loop3.cluster79.chk
%nprocshared=48
%mem=10GB
%nosave
#b3lyp/svp scf=(tight,noincore) Test 
#IOP(5/87=12) Density=Current Pop=(MK,readradii) iop(6/33=2) iop(6/42=6)

loop3.cluster79 

   0  1 
C         98.02220       46.70537      102.81912
C         99.36906       47.25075      102.45560
O         99.57516       47.61804      101.31147
H         97.32659       46.75366      101.95401
H         98.12662       45.64897      103.14114
H         97.59469       47.30323      103.65184
N        100.32844       47.37235      103.41290
C        101.64966       47.94708      103.17433
C        102.73121       47.14205      103.88135
O        102.54867       46.75229      105.02708
C        101.68651       49.43909      103.59188
C        101.11243       49.73536      104.95884
O        101.83606       50.37921      105.88612
O         99.94969       49.46512      105.20388
H        100.07307       47.12560      104.38126
H        101.89163       47.95724      102.08709
H        101.07556       50.01176      102.86221
H        102.73131       49.81857      103.49930
N        103.94759       46.98003      103.28194
C        105.10264       46.34702      103.92328
C        105.79436       45.39079      102.93831
O        106.98124       45.12507      103.07852
C        106.09377       47.46131      104.30685
C        105.52354       48.53089      105.25952
C        106.47623       49.74301      105.24661
C        105.98116       50.99377      105.98887
N        104.75809       51.52725      105.39424
H        104.09654       47.41520      102.35781
H        104.82487       45.79872      104.85193
H        106.37577       47.95467      103.35271
H        107.00900       47.03418      104.77339
H        105.37866       48.12256      106.28770
H        104.53845       48.84947      104.88123
H        106.63319       50.05016      104.18994
H        107.45310       49.43191      105.67188
H        106.77194       51.77115      105.90458
H        105.81813       50.77364      107.06583
H        104.88493       51.72128      104.37415
H        104.00720       50.83051      105.51547
H        104.47237       52.40465      105.88473
N        105.08655       44.81369      101.93043
C        105.65950       43.87347      100.96567
C        106.45532       44.56592       99.86362
O        107.56109       44.15019       99.54881
C        104.52368       43.01775      100.34014
C        103.55620       43.75310       99.45021
O        102.90728       44.83772       99.90293
O        103.35277       43.36176       98.31239
H        104.07320       44.97671      101.91426
H        106.29835       43.13936      101.50372
H        103.94424       42.57124      101.17395
H        104.97263       42.19152       99.74817
N        105.86831       45.57248       99.16772
C        106.40388       46.15425       97.94926
C        105.25783       46.85228       97.15589
O        104.18049       47.29142       97.93425
H        104.96648       45.90546       99.51068
H        106.76956       45.34445       97.27648
H        107.26271       46.80603       98.20398
N        105.61225       47.89588       96.18688
C        106.98963       48.17345       95.76819
C        106.87682       48.49284       94.28432
O        106.25548       49.49520       93.95754
C        107.58172       49.35098       96.59952
C        108.92987       49.86913       96.13944
N        109.50446       50.91557       96.78142
O        109.49684       49.36620       95.18100
H        104.97007       48.72371       96.17758
H        107.61136       47.28813       95.94663
H        107.67661       49.03394       97.66119
H        106.87628       50.20854       96.56949
H        109.04018       51.35591       97.58989
H        110.41000       51.29242       96.46202
N        107.35310       47.66757       93.30209
C        108.11963       46.45085       93.52758
C        107.23942       45.22748       93.55900
O        106.36043       45.14467       94.40139
H        107.13543       47.91156       92.32318
H        108.73177       46.49749       94.44290
H        108.86988       46.36829       92.71634
N        107.45138       44.21616       92.66771
C        106.65224       42.99825       92.65141
C        107.49990       41.75002       92.79736
O        108.65488       41.74331       92.40344
C        105.95138       42.86093       91.28747
C        104.86395       43.85755       91.01978
C        103.77899       43.97168       91.90186
C        104.88292       44.62404       89.84640
C        102.71543       44.81841       91.60766
C        103.81348       45.47277       89.54981
C        102.72077       45.56335       90.42720
O        101.66917       46.35368       90.13890
H        108.19976       44.31537       91.96832
H        105.90058       42.99216       93.46853
H        105.45197       41.87947       91.23145
H        106.71812       42.87470       90.47890
H        103.74518       43.39784       92.80901
H        105.70861       44.54161       89.14976
H        101.87864       44.87985       92.29170
H        103.82644       46.04487       88.63195
H        101.62428       46.85578       89.31382
N        106.87427       40.59272       93.17033
C        107.44950       39.26627       93.01673
C        106.66036       38.47552       91.94479
O        107.11053       37.41177       91.54180
C        107.47067       38.54874       94.40637
C        106.11382       37.85437       94.72334
C        108.64919       37.57534       94.48740
C        106.05487       37.11440       96.05495
H        105.91854       40.65280       93.50715
H        108.49002       39.39391       92.64786
H        107.67736       39.31860       95.18403
H        105.90745       37.08559       93.95278
H        105.30398       38.61269       94.70861
H        108.53958       36.74415       93.76411
H        109.59173       38.12771       94.28315
H        108.74437       37.17463       95.51743
H        105.03794       36.68721       96.19072
H        106.76489       36.26167       96.05440
H        106.27803       37.80023       96.89523
N        105.46780       38.94825       91.44922
C        104.70255       38.30333       90.38938
C        103.79818       37.16786       90.87537
O        103.24465       36.47994       90.02749
C        103.85466       39.36242       89.64696
O        102.82585       39.85734       90.46539
H        105.10862       39.83941       91.78175
H        105.42799       37.90919       89.64375
H        103.38812       38.92349       88.74119
H        104.50599       40.19502       89.28516
H        103.18191       40.65307       90.93491
N        103.59648       36.90004       92.20604
C        102.83756       35.73036       92.65807
C        102.02476       35.98384       93.92032
O        102.58737       36.35512       94.93985
C        103.79743       34.57982       92.94003
H        104.06330       37.48248       92.90900
H        102.15698       35.38044       91.85183
H        104.36251       34.33051       92.01864
H        104.51127       34.84596       93.74829
H        103.21682       33.68303       93.24949
N        100.68263       35.73817       93.91726
C         99.81486       35.86255       95.08778
C         99.93824       37.22421       95.72249
O         99.99429       37.33285       96.94650
C        100.04585       34.72406       96.08823
H        100.23641       35.45020       93.03486
H         98.76949       35.75426       94.71745
H         99.95835       33.74450       95.57427
H        101.04981       34.80306       96.55455
H         99.27396       34.76212       96.88942
N         99.96682       38.32780       94.93793
C        100.02194       39.67408       95.46476
C         98.67537       40.33995       95.29171
O         98.30530       41.15502       96.11933
C        101.12459       40.48446       94.77745
C        102.50044       39.84710       94.96396
C        103.54435       40.77963       94.47335
O        104.47004       41.26211       95.32470
O        103.55540       41.11382       93.30388
H         99.92812       38.19985       93.91235
H        100.24670       39.66621       96.55819
H        101.14916       41.49104       95.23339
H        100.90787       40.59813       93.69003
H        102.56914       38.89351       94.40089
H        102.68819       39.65316       96.03979
N         97.85767       39.99146       94.25529
C         96.54182       40.55968       94.10661
H         95.92341       40.31085       94.99469
H         96.62045       41.65862       93.98706
H         96.06005       40.12696       93.20414
H         98.15683       39.30126       93.55840
Ca       102.35564       45.95506       97.46450
O        100.40225       43.86106       96.23930
H         99.99680       43.00550       96.52555
H        100.63434       43.72659       95.28586
O         99.52832       46.95726       96.85846
H         99.38191       47.73757       96.26685
H         98.72847       46.93052       97.44090
O        101.69782       48.20517       98.85652
H        101.22207       47.89434       99.66061
H        102.36208       48.85177       99.19826
O        103.26244       44.44978       95.43736
H        104.01360       45.08858       95.37599
H        103.68832       43.56240       95.40823
O        102.06803       47.36142       95.15613
H        102.62485       48.17833       95.19404
H        101.64770       47.37060       94.26171
O        100.23604       45.12774       99.66993
H         99.42088       44.57069       99.64496
H        100.62929       44.93333      100.55733

Ca 1.70



