%chk=loop2.cluster203.chk
%nprocshared=48
%mem=10GB
%nosave
#b3lyp/svp scf=(tight,noincore) Test 
#IOP(5/87=12) Density=Current Pop=(MK,readradii) iop(6/33=2) iop(6/42=6)

loop2.cluster203 

   -2  1 
C         82.17597       55.11468        7.90279
C         83.48014       55.15581        7.16062
O         84.02930       56.22594        6.94150
H         81.39809       54.64980        7.26027
H         82.29814       54.49082        8.81511
H         81.84384       56.12896        8.20425
N         84.04110       53.98694        6.75769
C         85.33254       53.88644        6.08510
C         85.32217       54.62414        4.74301
O         84.45956       54.35889        3.91863
C         85.66425       52.38155        5.93391
C         87.06675       52.05779        5.51456
O         87.66282       50.94456        5.97868
O         87.70916       52.83774        4.84704
H         83.53571       53.11613        6.98669
H         86.09686       54.32901        6.75341
H         84.93877       51.88369        5.25712
H         85.55016       51.91654        6.93842
N         86.26926       55.57280        4.47219
C         86.29185       56.39996        3.26743
C         87.48405       56.11004        2.34163
O         87.64845       56.82571        1.36291
C         86.23296       57.86738        3.71322
H         86.99535       55.74836        5.17102
H         85.39508       56.21871        2.63949
H         85.29142       58.03147        4.28366
H         87.08922       58.12394        4.37382
H         86.22608       58.55397        2.84117
N         88.30652       55.03540        2.54376
C         89.32351       54.59351        1.58374
C         89.16910       53.10909        1.15687
O         89.90560       52.68994        0.27374
C         90.73373       54.87815        2.14423
C         90.95594       54.31225        3.51512
O         90.83638       53.12397        3.71407
O         91.28000       55.12229        4.53774
H         88.19746       54.49450        3.39701
H         89.24250       55.18507        0.64457
H         90.87280       55.97768        2.21594
H         91.50295       54.48647        1.44204
N         88.23700       52.26313        1.70985
C         88.03708       50.88032        1.25645
C         89.19372       49.91651        1.49698
O         89.14873       48.80449        0.98869
H         87.59942       52.61283        2.43113
H         87.80600       50.90382        0.17107
H         87.15829       50.44440        1.78018
N         90.26024       50.27132        2.25829
C         91.43261       49.42435        2.45236
C         91.20168       48.21794        3.37257
O         92.13280       47.44197        3.54538
C         92.61097       50.29273        2.94889
C         92.44635       50.87564        4.31863
N         93.44202       51.61811        4.83943
O         91.43080       50.68060        4.96506
H         90.26418       51.20342        2.66325
H         91.75490       49.04898        1.45601
H         92.76509       51.13338        2.23663
H         93.53763       49.68197        2.96910
H         94.28277       51.83602        4.29214
H         93.39057       51.94760        5.79848
N         90.01005       48.00194        4.01543
C         89.78381       46.82876        4.85707
C         90.03945       47.07037        6.33370
O         90.02582       46.11078        7.09117
H         89.23660       48.67109        3.90372
H         90.45114       46.00204        4.53130
H         88.74551       46.46149        4.71339
N         90.28235       48.31833        6.81970
C         90.61496       48.57806        8.22178
C         90.16516       49.94563        8.65823
O         89.98568       50.81728        7.83503
C         92.15723       48.52433        8.46172
C         92.65157       47.10183        8.63200
O         92.89624       49.12663        7.42259
H         90.19703       49.11255        6.17871
H         90.05184       47.88233        8.88171
H         92.40603       49.03725        9.41943
H         92.37502       49.87577        7.04543
H         92.48223       46.50815        7.71415
H         93.74071       47.12550        8.85013
H         92.12965       46.63778        9.49562
N         89.99726       50.20837        9.98058
C         89.70956       51.54429       10.47375
C         91.00701       52.32938       10.45980
O         91.97624       51.88452       11.06479
C         89.13054       51.49727       11.91980
C         87.85712       50.61655       11.98352
C         88.79003       52.92935       12.38543
C         87.43337       50.29846       13.41965
H         90.10825       49.43711       10.65656
H         88.92715       52.02191        9.83946
H         89.89992       51.05580       12.59273
H         88.03666       49.63279       11.50555
H         87.02909       51.11257       11.43172
H         88.06374       53.40178       11.68624
H         88.36435       52.96095       13.40356
H         89.70100       53.54344       12.42072
H         86.51467       49.67735       13.40131
H         88.23730       49.72091       13.92653
H         87.21765       51.20797       14.01171
N         91.07630       53.54547        9.85503
C         92.23167       54.41936        9.99798
C         91.95509       55.41023       11.09795
O         90.85856       55.41238       11.61413
C         92.53104       55.15074        8.67966
C         93.02366       54.21428        7.61508
O         92.22425       53.33294        6.98741
O         94.20016       54.25122        7.29867
H         90.22143       53.93258        9.43573
H         93.12841       53.84630       10.32673
H         93.35580       55.86663        8.88371
H         91.65564       55.73969        8.32567
N         92.90678       56.25348       11.56595
C         92.65033       57.19114       12.65457
C         91.55073       58.20665       12.28676
O         90.59492       58.29050       13.03885
C         93.98510       57.78409       13.14870
C         93.85216       58.85528       14.20040
C         94.42361       60.11765       13.97072
C         93.19160       58.60828       15.41765
C         94.34022       61.11695       14.94071
C         93.10574       59.61641       16.38465
C         93.68169       60.86813       16.14667
H         93.85644       56.19688       11.16062
H         92.26002       56.62042       13.53107
H         94.57842       58.16881       12.30243
H         94.58101       56.94648       13.57523
H         94.94306       60.32280       13.04263
H         92.74821       57.64149       15.61902
H         94.79091       62.08331       14.75681
H         92.59728       59.42662       17.32103
H         93.62079       61.64500       16.89719
N         91.57621       58.97700       11.14713
C         90.48813       59.89293       10.79020
C         89.09208       59.26390       10.74287
O         88.10896       59.98753       10.83851
C         90.90318       60.36372        9.38583
C         92.41678       60.32632        9.47013
C         92.66513       59.01254       10.20375
H         90.50504       60.71725       11.53496
H         90.62301       59.58901        8.63389
H         90.46697       61.33668        9.07465
H         92.96493       60.42443        8.50939
H         92.72796       61.16089       10.14157
H         92.59605       58.12752        9.53595
H         93.66366       59.09570       10.66190
N         88.93349       57.92347       10.57116
C         87.63700       57.23992       10.56003
C         87.22630       56.94071       11.99166
O         86.09797       57.21320       12.37075
C         87.75011       55.96395        9.69671
C         88.12971       56.38822        8.26474
C         88.50429       55.28724        7.35850
O         89.03211       55.56127        6.29275
O         88.42677       54.00933        7.72892
H         89.77985       57.35209       10.42807
H         86.85417       57.85977       10.06601
H         86.79390       55.39492        9.67344
H         88.53224       55.30430       10.12772
H         89.04673       57.01061        8.30394
H         87.31684       56.97584        7.79352
N         88.14377       56.42995       12.85639
C         87.93472       56.22590       14.26902
H         86.94522       56.58394       14.60849
H         88.05851       55.14932       14.50498
H         88.72528       56.78500       14.81859
H         89.06895       56.22801       12.50893
Ca        90.05755       53.04716        6.68637

Ca 1.70



