%chk=loop2.cluster189.chk
%nprocshared=48
%mem=10GB
%nosave
#b3lyp/svp scf=(tight,noincore) Test 
#IOP(5/87=12) Density=Current Pop=(MK,readradii) iop(6/33=2) iop(6/42=6)

loop2.cluster189 

   -2  1 
C         58.73007       47.39227       11.82380
C         60.02559       46.79565       11.36886
O         60.05875       45.62496       11.01276
H         57.89612       46.66611       11.72077
H         58.82328       47.70250       12.88372
H         58.50095       48.28365       11.19980
N         61.14964       47.56902       11.35305
C         62.45816       47.10401       10.88023
C         62.57844       47.07539        9.34492
O         63.64371       47.36923        8.81614
C         63.56811       47.98917       11.50504
C         63.50633       49.45095       11.10882
O         64.40751       50.31170       11.61536
O         62.65062       49.86400       10.33979
H         61.07273       48.51646       11.75057
H         62.62622       46.07302       11.26541
H         64.56601       47.58925       11.22354
H         63.48055       47.92646       12.61142
N         61.50861       46.76209        8.56786
C         61.54439       46.69225        7.11694
C         60.11843       46.53125        6.63897
O         59.46455       45.60038        7.09622
C         62.33639       45.45949        6.65728
H         60.61050       46.59317        9.01533
H         62.00881       47.61476        6.71441
H         61.85224       44.52870        7.03063
H         62.35577       45.41755        5.54637
H         63.37837       45.48049        7.03081
N         59.51842       47.35164        5.73886
C         60.16553       48.42000        4.96359
C         60.25248       49.73589        5.73088
O         59.78237       49.80128        6.85846
C         59.46974       48.54477        3.57822
C         58.01232       48.93555        3.60219
O         57.58840       49.79374        2.86218
O         57.15994       48.27476        4.38020
H         58.56921       47.06867        5.49781
H         61.19935       48.09727        4.72016
H         59.51947       47.53550        3.11702
H         60.02973       49.24092        2.91854
N         60.91333       50.81248        5.19632
C         61.14769       52.03506        5.95931
C         61.08731       53.31139        5.13220
O         62.11442       53.96922        5.03724
H         61.38059       50.70698        4.28270
H         62.19090       51.96475        6.34343
H         60.48618       52.11716        6.84411
N         59.96927       53.76953        4.49400
C         58.67727       53.09592        4.45767
C         57.92998       53.26010        5.77562
O         57.62179       54.38083        6.16041
C         57.82874       53.69137        3.30646
C         58.50950       53.57865        1.95317
N         58.81883       52.37358        1.42654
O         58.77794       54.59200        1.32707
H         60.07216       54.63838        3.94429
H         58.83411       52.02267        4.22699
H         57.64054       54.76844        3.51429
H         56.84699       53.18150        3.25879
H         58.61517       51.52116        1.93997
H         59.26809       52.29349        0.50357
N         57.60967       52.16976        6.52414
C         56.92313       52.25258        7.80262
C         55.45403       52.60104        7.69027
O         54.92396       53.20113        8.61251
H         57.90088       51.23992        6.19580
H         57.45408       52.94261        8.49646
H         56.95277       51.24832        8.27709
N         54.71363       52.17655        6.62232
C         53.25846       52.33660        6.54905
C         52.59443       50.98111        6.38064
O         53.10578       50.13245        5.67646
C         52.80694       53.38228        5.51850
C         53.28266       54.77782        5.96349
O         53.21152       53.06454        4.20997
H         55.19257       51.69414        5.85280
H         52.87866       52.74064        7.50938
H         51.69509       53.41122        5.53023
H         54.01102       53.60348        3.97218
H         52.92154       54.98945        6.99476
H         54.39234       54.83172        5.96643
H         52.87398       55.55321        5.28678
N         51.51087       50.67790        7.14198
C         51.14069       49.29929        7.43859
C         50.21614       48.67756        6.39750
O         49.09815       49.13507        6.21767
C         50.61478       49.17126        8.90873
C         51.75326       49.37021        9.95829
C         49.35797       50.01882        9.21767
C         52.38255       50.75786       10.11148
H         51.13045       51.42859        7.72598
H         52.06885       48.68800        7.44453
H         50.32034       48.10866        9.05899
H         52.56981       48.65685        9.71151
H         51.36232       49.08206       10.95761
H         49.13348       49.99537       10.30403
H         49.45080       51.08527        8.93658
H         48.47836       49.60471        8.68364
H         53.20939       50.69131       10.85107
H         52.84845       51.11392        9.17967
H         51.64065       51.49559       10.48028
N         50.62424       47.54628        5.74242
C         49.75599       46.72236        4.89805
C         49.37129       45.47448        5.67621
O         49.82985       45.31215        6.78022
C         50.41698       46.37526        3.54005
C         51.81396       45.81920        3.64035
O         52.83152       46.62754        3.98336
O         52.04572       44.66408        3.32379
H         51.55379       47.17302        5.96453
H         48.79598       47.24266        4.69738
H         50.46705       47.28033        2.90110
H         49.77260       45.63896        3.01388
N         48.46776       44.58542        5.17806
C         47.82519       43.54103        5.98401
C         48.77169       42.75659        6.89649
O         48.57030       42.76185        8.10879
C         46.58996       44.16729        6.68908
C         45.62247       43.16510        7.29475
C         45.15351       43.33163        8.61183
C         45.14006       42.08231        6.53201
C         44.22787       42.42815        9.15065
C         44.23517       41.17373        7.08364
C         43.77692       41.34653        8.38963
H         48.06475       44.76940        4.25017
H         47.41289       42.81304        5.26355
H         46.01446       44.71142        5.90996
H         46.91403       44.92067        7.44291
H         45.48404       44.16988        9.21242
H         45.46141       41.93204        5.51224
H         43.85581       42.56755       10.15761
H         43.88377       40.33817        6.49199
H         43.06645       40.64519        8.80826
N         49.80946       42.01192        6.39708
C         50.66739       41.16764        7.21260
C         51.47157       41.95716        8.23467
O         51.61345       41.51325        9.36070
C         51.57726       40.48561        6.17972
C         50.70691       40.48302        4.92947
C         50.08238       41.86989        4.98212
H         50.03882       40.39173        7.70806
H         52.45199       41.13345        5.95283
H         51.94181       39.48186        6.49273
H         51.24399       40.25533        3.98424
H         49.89111       39.73741        5.07083
H         50.82943       42.64121        4.69284
H         49.19529       41.90993        4.32175
N         51.97929       43.17916        7.89819
C         52.67680       44.04509        8.85450
C         51.77977       44.34403       10.03937
O         52.16335       44.06201       11.16684
C         53.12072       45.35258        8.15198
C         54.22430       45.01783        7.14057
C         54.69444       46.14610        6.29474
O         55.60072       45.94056        5.50294
O         54.12372       47.36122        6.32594
H         51.81827       43.52563        6.94210
H         53.59178       43.53462        9.22904
H         53.53122       46.07583        8.89130
H         52.25046       45.83056        7.65793
H         53.87849       44.24174        6.42905
H         55.09932       44.62789        7.70211
N         50.54960       44.88403        9.84612
C         49.60054       45.15758       10.89538
H         48.67490       44.57463       10.69618
H         49.98773       44.89076       11.89773
H         49.34760       46.23778       10.86951
H         50.25507       45.09482        8.90158
Ca        55.00875       48.59622        4.70600
O         55.37241       51.07725        3.47446
H         55.41921       51.37864        2.53533
H         54.40937       51.06550        3.68369
O         55.40794       46.98621        2.05122
H         54.75155       46.30183        1.76655
H         56.25496       46.71692        1.61497
O         53.06278       49.42124        2.29516
H         52.15634       49.76426        2.49691
H         53.27521       49.78425        1.39880

Ca 1.70



