%chk=loop2.cluster100.chk
%nprocshared=48
%mem=10GB
%nosave
#b3lyp/svp scf=(tight,noincore) Test 
#IOP(5/87=12) Density=Current Pop=(MK,readradii) iop(6/33=2) iop(6/42=6)

loop2.cluster100 

   -2  1 
C         52.24176      -17.61716       33.87375
C         52.19462      -18.22644       35.24406
O         52.46736      -17.52534       36.20139
H         53.26837      -17.25169       33.66617
H         51.96063      -18.35169       33.09080
H         51.53562      -16.76156       33.82423
N         51.85243      -19.53846       35.40529
C         51.75247      -20.23181       36.69580
C         53.06107      -20.20315       37.48082
O         53.02829      -19.87312       38.65435
C         51.31843      -21.69030       36.44314
C         51.23539      -22.50408       37.70562
O         51.93080      -23.49908       37.83507
O         50.39945      -22.14042       38.69668
H         51.63926      -20.07855       34.55289
H         50.95381      -19.75544       37.31213
H         52.04429      -22.16764       35.75015
H         50.31882      -21.69129       35.95400
N         54.25056      -20.53049       36.88717
C         55.56453      -20.46935       37.55679
C         55.95844      -19.07355       38.04745
O         56.97533      -18.93927       38.71413
C         55.65296      -21.45844       38.72565
H         54.23135      -20.81269       35.89729
H         56.33155      -20.78514       36.81835
H         55.41173      -22.48535       38.38642
H         56.69793      -21.46648       39.10998
H         54.98686      -21.17169       39.56534
N         55.19519      -17.99296       37.75157
C         55.37248      -16.65154       38.27908
C         55.04782      -16.61225       39.74955
O         55.77843      -16.02157       40.53260
C         56.74178      -16.03025       37.91113
C         57.06314      -16.15177       36.44526
O         58.08054      -16.93787       36.04680
O         56.41728      -15.54025       35.61309
H         54.40741      -18.12481       37.12651
H         54.55975      -16.06399       37.84817
H         57.53349      -16.55714       38.47810
H         56.77532      -14.95845       38.20932
N         53.91601      -17.23169       40.18792
C         53.50487      -17.20603       41.56996
C         52.93348      -15.86203       41.93175
O         52.76199      -15.01075       41.06939
H         53.33629      -17.75092       39.52260
H         54.37548      -17.45812       42.21358
H         52.71823      -17.97263       41.74421
N         52.62149      -15.61163       43.22984
C         52.13315      -14.33132       43.72552
C         50.77171      -13.98075       43.14171
O         50.60801      -12.91850       42.55310
C         53.18493      -13.22127       43.51016
C         54.54610      -13.61765       44.03131
N         55.61212      -13.67198       43.19632
O         54.68708      -13.89305       45.21328
H         52.78898      -16.35781       43.92095
H         51.99401      -14.43802       44.82290
H         52.85085      -12.30480       44.03986
H         53.26261      -12.98482       42.43003
H         55.51113      -13.44369       42.19635
H         56.54118      -13.94169       43.55147
N         49.72744      -14.84264       43.29940
C         48.38663      -14.55774       42.81220
C         48.24932      -14.61894       41.31044
O         47.14052      -14.43673       40.82518
H         49.87972      -15.72135       43.81693
H         48.04240      -13.57477       43.19833
H         47.69911      -15.33971       43.20261
N         49.30898      -14.91840       40.50461
C         49.13315      -15.20575       39.09431
C         49.35351      -13.95389       38.25133
O         49.75786      -12.92184       38.77037
C         50.03283      -16.39146       38.67704
C         49.92028      -17.60579       39.61845
O         49.64731      -16.79280       37.39410
H         50.23427      -15.08239       40.91249
H         48.08127      -15.53179       38.92643
H         51.09176      -16.03705       38.69425
H         50.39716      -17.28876       37.01088
H         50.16472      -17.34646       40.66944
H         48.89861      -18.03688       39.58317
H         50.64904      -18.38379       39.30768
N         49.00697      -13.97243       36.93664
C         49.01915      -12.79586       36.06660
C         50.45027      -12.47317       35.71152
O         51.17424      -13.40605       35.42463
C         48.20209      -13.06856       34.76523
C         46.79974      -13.66236       35.10382
C         48.06671      -11.75306       33.97329
C         45.89858      -13.89083       33.89959
H         48.65791      -14.85676       36.55935
H         48.51719      -11.95050       36.58981
H         48.74598      -13.80939       34.13553
H         46.27520      -13.01308       35.83576
H         46.90066      -14.66762       35.55477
H         49.05782      -11.31268       33.74309
H         47.56994      -11.92442       32.99861
H         47.47782      -11.01308       34.55862
H         44.97358      -14.40146       34.24267
H         45.60578      -12.92657       33.44156
H         46.40882      -14.53604       33.15343
N         50.92796      -11.19269       35.66156
C         52.35547      -10.90707       35.48689
C         52.80126      -10.01992       36.63257
O         53.47816       -9.01688       36.43470
C         52.66435      -10.37450       34.07677
C         54.13730      -10.18632       33.76032
O         55.02532      -11.20383       33.67137
O         54.53996       -9.06074       33.52198
H         50.27831      -10.40637       35.79677
H         52.92475      -11.84289       35.58291
H         52.17868       -9.39073       33.97795
H         52.22207      -11.05683       33.32180
N         52.47483      -10.39067       37.89531
C         53.01423       -9.78061       39.09066
C         52.56643       -8.33390       39.37409
O         53.44522       -7.53518       39.64146
C         52.72174      -10.71536       40.28196
C         53.42807      -10.34129       41.55133
C         52.71063       -9.76450       42.60816
C         54.79373      -10.63120       41.71377
C         53.34854       -9.48714       43.81866
C         55.42423      -10.36729       42.93284
C         54.70140       -9.79830       43.98534
H         51.89347      -11.23890       38.00708
H         54.12491       -9.78163       38.99283
H         53.05323      -11.74773       40.02337
H         51.63631      -10.79972       40.46900
H         51.65824       -9.53647       42.49207
H         55.35604      -11.09435       40.91129
H         52.78894       -9.04616       44.63209
H         56.46851      -10.61899       43.06680
H         55.18731       -9.60446       44.93192
N         51.24611       -7.92777       39.44991
C         50.06995       -8.71324       39.12279
C         49.50048       -8.43638       37.71602
O         48.60738       -9.14999       37.29749
C         49.05203       -8.15095       40.13199
C         49.39560       -6.65855       40.16433
C         50.92143       -6.67697       40.12960
H         50.18439       -9.80132       39.27525
H         47.98497       -8.36554       39.90129
H         49.28997       -8.56599       41.13461
H         49.02694       -6.19189       39.22740
H         48.96930       -6.09017       41.02084
H         51.34171       -5.77052       39.64350
H         51.30479       -6.75047       41.17224
N         49.86665       -7.31661       37.02103
C         49.12836       -6.81249       35.85333
C         49.15981       -7.72806       34.64437
O         50.22883       -8.16487       34.25797
C         49.73131       -5.46912       35.37336
C         49.75287       -4.31149       36.38832
C         48.38330       -3.86061       36.80397
O         48.06141       -3.79922       38.10997
O         47.57352       -3.50219       35.96374
H         50.61569       -6.73297       37.40170
H         48.06987       -6.62730       36.14309
H         49.15953       -5.12379       34.48137
H         50.77927       -5.65363       35.05202
H         50.25630       -3.45465       35.89353
H         50.35273       -4.56673       37.28576
N         48.03449       -7.89667       33.88703
C         48.04325       -8.56438       32.59672
H         47.79415       -7.82143       31.80727
H         49.02991       -9.00731       32.34379
H         47.27410       -9.36169       32.57396
H         47.15236       -7.45873       34.19052
Ca        55.42125      -13.42703       33.74694
O         52.95602      -14.11678       32.85604
H         52.81991      -13.61829       32.01292
H         52.05050      -14.23508       33.23105
O         57.69531      -12.95085       32.09419
H         58.54098      -12.44979       31.98179
H         57.57187      -13.43831       31.24140
O         57.60781      -12.28157       35.35816
H         57.23115      -11.39503       35.12961
H         57.85635      -12.20656       36.31292
O         54.07041      -13.86278       35.97686
H         53.26146      -14.23068       35.56214
H         54.37750      -14.62047       36.49978
O         55.54396      -16.02594       32.64126
H         55.55414      -16.13136       31.65740
H         55.91024      -16.87464       32.99435

Ca 1.70



