%chk=loop2.cluster137.chk
%nprocshared=48
%mem=10GB
%nosave
#b3lyp/svp scf=(tight,noincore) Test 
#IOP(5/87=12) Density=Current Pop=(MK,readradii) iop(6/33=2) iop(6/42=6)

loop2.cluster137 

   -2  1 
C         85.91294       72.31263       20.27347
C         86.53082       72.21055       18.90981
O         86.15630       72.96877       18.02687
H         84.83151       72.08210       20.19757
H         86.38046       71.59580       20.98175
H         86.04588       73.33764       20.68127
N         87.51727       71.30027       18.67639
C         88.20074       71.16334       17.39767
C         89.53529       71.84343       17.56423
O         90.57695       71.20304       17.59805
C         88.27361       69.66810       17.03008
C         88.87446       69.38635       15.67701
O         88.96527       68.11337       15.24899
O         89.26492       70.29265       14.95717
H         87.84483       70.71546       19.46109
H         87.65619       71.69333       16.58388
H         87.23896       69.26354       17.02422
H         88.85611       69.12486       17.80590
N         89.53215       73.18912       17.74039
C         90.69047       73.96261       18.13562
C         90.34081       74.66366       19.42935
O         89.16188       74.81945       19.72112
C         90.97965       74.99684       17.04297
H         88.63547       73.69020       17.64432
H         91.57225       73.30674       18.29151
H         90.08067       75.62763       16.86661
H         91.81371       75.67353       17.30579
H         91.23916       74.47375       16.10041
N         91.27870       75.18469       20.25195
C         92.71585       75.07653       20.08044
C         93.24314       73.72487       20.48181
O         92.85268       73.20196       21.51264
C         93.41309       76.11811       20.96660
C         93.04368       77.51824       20.59838
O         92.27696       77.74751       19.67514
O         93.57712       78.53188       21.29360
H         90.93618       75.72524       21.04296
H         93.02267       75.32495       19.04945
H         94.51072       76.03358       20.83681
H         93.15495       75.95288       22.03501
N         94.26470       73.18168       19.77058
C         95.04375       72.04298       20.22134
C         94.24379       70.76861       20.29503
O         93.42055       70.54673       19.41777
H         94.57267       73.65982       18.91143
H         95.52932       72.29536       21.18656
H         95.84776       71.87923       19.47420
N         94.45995       69.81740       21.25321
C         95.51441       69.88526       22.27151
C         95.05006       70.64380       23.52371
O         95.81484       70.72795       24.47828
C         95.94149       68.44792       22.67985
C         96.40712       67.58450       21.51855
N         97.65757       67.06497       21.49626
O         95.63683       67.32401       20.60627
H         93.90029       68.95399       21.19562
H         96.42911       70.35661       21.84573
H         95.08558       67.93489       23.16716
H         96.76426       68.52113       23.42572
H         98.32489       67.25510       22.25704
H         97.95288       66.45900       20.71507
N         93.79938       71.19320       23.60641
C         93.26769       71.82690       24.80696
C         94.07797       73.02463       25.23506
O         94.58805       73.03956       26.34435
H         93.16825       71.12738       22.79817
H         93.23201       71.07825       25.62737
H         92.22773       72.16198       24.60203
N         94.24231       74.06720       24.38027
C         95.13260       75.18984       24.64348
C         94.33073       76.49229       24.68508
O         94.90061       77.56090       24.50189
C         96.21697       75.14721       23.52676
C         97.44434       76.00870       23.84935
O         96.64116       73.81242       23.36913
H         93.77029       74.04076       23.47253
H         95.64549       75.07186       25.62061
H         95.75478       75.48401       22.57672
H         97.34368       73.78942       22.66866
H         97.93448       75.61283       24.76397
H         98.16918       75.94163       23.00911
H         97.19776       77.07522       23.99262
N         92.98183       76.47515       24.90419
C         92.16426       77.67890       24.82526
C         92.43569       78.69997       25.92377
O         93.20200       78.45070       26.84176
C         90.64938       77.34964       24.68142
C         90.41590       76.64337       23.33543
C         90.07037       76.55439       25.86735
C         88.97254       76.64806       22.84310
H         92.51235       75.57198       25.05332
H         92.45011       78.20513       23.88672
H         90.12917       78.30830       24.61969
H         90.80382       75.60411       23.38801
H         90.97981       77.20749       22.56305
H         88.96301       76.51819       25.80813
H         90.44218       75.50817       25.87393
H         90.34585       77.03162       26.83037
H         88.69438       77.68195       22.57725
H         88.88710       76.07688       21.90147
H         88.27240       76.21079       23.57954
N         91.87193       79.93355       25.79558
C         92.15756       81.08716       26.62692
C         90.86294       81.71515       27.10725
O         90.06892       82.15496       26.29009
C         92.95476       82.17291       25.82479
C         92.76762       82.12129       24.33493
O         93.27691       81.09260       23.63100
O         92.13615       82.99149       23.75697
H         91.25021       80.09569       25.00233
H         92.77446       80.81969       27.50955
H         94.04158       82.05389       25.99192
H         92.67636       83.18563       26.19757
N         90.65903       81.89960       28.44173
C         89.65146       82.82245       28.95195
C         88.22117       82.44934       28.58441
O         87.75991       81.39778       29.01620
C         89.79323       82.96609       30.48227
C         89.08916       84.20852       30.95964
C         87.69771       84.22542       31.14330
C         89.83202       85.37958       31.18845
C         87.06084       85.39898       31.55505
C         89.19034       86.55166       31.58943
C         87.80596       86.56162       31.77511
H         91.34644       81.50757       29.10251
H         89.92935       83.81148       28.53274
H         90.87452       83.08256       30.71381
H         89.45260       82.06010       31.03231
H         87.11049       83.33250       30.97224
H         90.90488       85.38751       31.03468
H         85.98901       85.40792       31.69928
H         89.76733       87.45294       31.75073
H         87.31081       87.47101       32.08687
N         87.42013       83.28259       27.83746
C         86.00465       83.04441       27.60936
C         85.70890       81.87672       26.69303
O         84.56062       81.47557       26.60172
C         85.51946       84.37076       27.01013
C         86.76096       84.88827       26.29897
C         87.87629       84.53674       27.27564
H         85.48217       82.85737       28.57460
H         84.60522       84.30775       26.38027
H         85.32805       85.07542       27.84793
H         86.90538       84.26895       25.38411
H         86.73984       85.95899       26.00439
H         88.82179       84.45000       26.69975
H         87.97614       85.27423       28.10180
N         86.69975       81.28741       25.97949
C         86.46891       80.10041       25.17517
C         86.13427       78.94049       26.08957
O         85.18557       78.21476       25.81703
C         87.71931       79.77816       24.35094
C         88.01667       80.87890       23.31357
C         89.16354       80.56809       22.39976
O         90.39072       80.48898       22.90592
O         89.00361       80.51023       21.19227
H         87.64597       81.67622       26.02012
H         85.64250       80.26489       24.44721
H         87.49699       78.83966       23.81940
H         88.57373       79.64475       25.04122
H         88.26708       81.82809       23.83480
H         87.11667       81.04212       22.69037
N         86.88912       78.70553       27.20008
C         86.62585       77.62078       28.11940
H         85.58797       77.23448       28.02983
H         87.35157       76.80561       27.92546
H         86.76869       77.97619       29.16253
H         87.68847       79.32457       27.40434
Ca        92.24469       80.76063       21.70566
O         91.00191       83.10474       20.56725
H         90.29846       83.67114       20.97210
H         91.45752       83.69287       19.91441
O         92.48857       80.60458       18.89852
H         92.94504       79.78489       18.58946
H         92.59365       81.23427       18.14490

Ca 1.70



