%chk=loop4.cluster137.chk
%nprocshared=48
%mem=10GB
%nosave
#b3lyp/svp scf=(tight,noincore) Test 
#IOP(5/87=12) Density=Current Pop=(MK,readradii) iop(6/33=2) iop(6/42=6)

loop4.cluster137 

   -3  1 
C         42.51171       40.67729       42.32724
C         42.25352       40.12417       43.69120
O         43.13482       39.50280       44.26011
H         43.55497       40.47272       42.00336
H         41.79085       40.27903       41.58862
H         42.39356       41.78166       42.40028
N         41.07827       40.41815       44.31809
C         40.89423       40.34452       45.76342
C         42.13357       40.79955       46.51225
O         42.73282       39.99848       47.19702
C         40.20272       39.05859       46.28263
C         41.02711       37.80317       46.21852
O         41.44996       37.31345       45.02332
O         41.28498       37.21197       47.25666
H         40.38108       40.95953       43.78786
H         40.13600       41.11756       46.01491
H         39.24553       38.91551       45.74016
H         39.94118       39.24985       47.35330
N         42.55724       42.09810       46.38546
C         43.62381       42.78972       47.13341
C         43.23217       42.99201       48.60540
O         43.08543       44.12298       49.04466
C         45.07727       42.21231       46.99038
C         46.06288       43.36104       47.38806
C         45.38521       41.74076       45.56211
C         47.55444       43.08100       47.27203
H         42.03351       42.68466       45.71815
H         43.66079       43.80410       46.67495
H         45.19566       41.32128       47.64832
H         45.86382       43.68332       48.43132
H         45.87641       44.22370       46.71247
H         46.37220       41.23860       45.53020
H         44.66360       40.97720       45.24802
H         45.37095       42.57987       44.83742
H         47.85622       42.33008       47.99884
H         47.82760       42.77330       46.24621
H         48.12754       44.00078       47.51183
N         43.02880       41.91242       49.40318
C         42.59872       41.91335       50.78486
C         43.59608       41.16192       51.69098
O         43.95232       41.73015       52.71199
C         41.18117       41.29001       50.93290
C         40.16043       41.91539       50.01875
O         39.98213       43.24927       50.00952
O         39.47527       41.21008       49.29363
H         43.14280       41.02645       48.98739
H         42.50032       42.96039       51.14774
H         40.85027       41.44282       51.98193
H         41.16545       40.19887       50.75567
N         44.06000       39.88007       51.46546
C         43.84944       39.11648       50.24346
C         44.21329       37.66666       50.33127
O         43.31618       36.85001       50.16378
H         44.62290       39.44203       52.20755
H         44.45266       39.53392       49.41444
H         42.77685       39.11881       49.98025
N         45.47613       37.19997       50.52751
C         46.70722       37.96776       50.79345
C         47.11986       38.86324       49.62396
O         46.83703       38.47112       48.50534
C         47.79257       36.89224       50.96660
C         49.01796       37.40956       51.59031
O         49.13963       37.44819       52.92756
O         49.96934       37.64969       50.89840
H         45.55447       36.16917       50.50888
H         46.59536       38.54572       51.73028
H         48.00783       36.42377       49.97307
H         47.44966       36.07444       51.63172
N         47.84696       40.02617       49.72136
C         48.40312       40.69049       50.89724
C         49.72307       41.38228       50.51319
O         49.76903       42.60088       50.40548
H         48.03363       40.49254       48.83878
H         48.58060       39.99620       51.73625
H         47.68165       41.46835       51.22143
N         50.80861       40.61449       50.21284
C         52.07201       41.05670       49.63880
C         51.93504       40.82249       48.14962
O         52.68438       40.05292       47.56660
C         53.26630       40.31550       50.35026
C         53.19121       38.76721       50.58735
C         53.35618       37.86689       49.37618
N         52.39261       36.98441       49.00937
O         54.40404       37.89643       48.75148
H         50.67508       39.61869       50.25470
H         52.22484       42.15473       49.76017
H         53.30405       40.74739       51.37425
H         54.23275       40.57136       49.86186
H         52.27681       38.51288       51.15306
H         54.02210       38.49537       51.27476
H         51.51286       36.91228       49.51511
H         52.53107       36.34973       48.21072
N         50.90865       41.44967       47.48776
C         50.44438       41.10967       46.15235
C         51.57477       41.04227       45.16569
O         51.92924       39.96575       44.71989
C         49.40562       39.95750       46.22436
C         49.91039       38.66983       46.89403
C         48.74330       39.69117       44.87886
H         50.32548       42.11383       48.01020
H         49.83659       41.95889       45.78202
H         48.57176       40.33061       46.83780
H         50.02446       38.83617       47.98622
H         49.17009       37.85252       46.77792
H         50.88061       38.33808       46.47601
H         49.43133       39.18905       44.17400
H         47.84329       39.05896       45.04831
H         48.38496       40.64622       44.43608
N         52.20961       42.20726       44.84066
C         53.41961       42.35540       44.03835
C         53.20485       42.06378       42.56191
O         53.19840       42.99941       41.76477
C         54.56206       41.57827       44.72111
C         55.94714       42.09061       44.44409
N         56.94398       41.77835       45.30444
O         56.16661       42.83414       43.49989
H         51.84641       43.07262       45.27026
H         53.67128       43.43902       44.11567
H         54.49954       40.48016       44.56304
H         54.41907       41.75318       45.80857
H         56.74909       41.19868       46.13564
H         57.89210       42.15568       45.16983
N         52.99137       40.79865       42.11824
C         52.69986       40.45723       40.73387
C         52.14562       39.03481       40.63164
O         52.02488       38.34386       41.64286
C         53.97045       40.62509       39.85349
C         55.02800       39.64759       40.29906
C         55.08032       38.36326       39.73786
C         55.90672       39.98309       41.33563
C         55.97311       37.41224       40.23587
C         56.80900       39.03776       41.82671
C         56.83310       37.74219       41.28824
O         57.67019       36.80868       41.78219
H         53.04124       40.04011       42.80278
H         51.89313       41.13060       40.36047
H         54.35854       41.66445       39.89720
H         53.72635       40.44998       38.78443
H         54.40834       38.09573       38.93494
H         55.87590       40.96978       41.77065
H         55.98288       36.41393       39.81630
H         57.47412       39.30649       42.63673
H         58.25069       36.99561       42.53356
N         51.78249       38.52838       39.42572
C         51.24899       37.18995       39.19579
C         49.77893       37.04159       39.59157
O         49.11545       36.19850       39.00848
C         52.16880       36.06811       39.73506
C         51.81268       34.69030       39.16311
C         52.79721       33.64764       39.60929
O         53.02651       33.44946       40.92132
O         53.38982       32.97170       38.78302
H         51.92268       39.12572       38.59271
H         51.24681       37.09438       38.08594
H         52.12568       36.03172       40.84513
H         53.21044       36.28720       39.43447
H         51.81724       34.73815       38.05033
H         50.80229       34.39400       39.50585
N         49.17384       37.90050       40.47136
C         47.72271       37.96241       40.61995
C         47.20733       39.19086       39.88253
O         46.03730       39.20756       39.52030
C         47.27918       37.92595       42.10076
C         47.73525       36.62341       42.77846
C         47.24810       36.43520       44.20024
O         48.07215       36.21753       45.07416
O         45.93138       36.44997       44.54213
H         49.72323       38.60519       40.96561
H         47.25627       37.09253       40.10956
H         46.17126       37.97803       42.14458
H         47.68550       38.81273       42.62451
H         48.85245       36.59604       42.77592
H         47.37239       35.76479       42.18158
N         48.04046       40.22123       39.54043
C         47.62312       41.29226       38.66961
H         46.75708       41.83532       39.09716
H         48.46749       42.00183       38.52667
H         47.36097       40.86768       37.67696
H         49.01327       40.24852       39.87279
Ca        43.62941       36.71429       44.43819
O         44.54311       37.75108       46.80858
H         43.80567       38.15592       46.30071
H         45.03738       38.54896       47.09620
O         44.63024       33.75556       44.42194
H         44.01136       33.06760       44.07058
H         45.18426       33.27691       45.08811
O         42.91850       34.80654       46.70347
H         43.00109       34.84526       47.68887
H         41.97687       35.04791       46.52184
O         43.76076       36.43286       41.65002
H         42.86785       36.35833       41.22938
H         44.31892       35.76136       41.18466
O         41.84119       34.73040       43.53177
H         40.91443       34.57089       43.83831
H         41.85189       34.44382       42.58496

Ca 1.70



