%chk=loop4.cluster51.chk
%nprocshared=48
%mem=10GB
%nosave
#b3lyp/svp scf=(tight,noincore) Test 
#IOP(5/87=12) Density=Current Pop=(MK,readradii) iop(6/33=2) iop(6/42=6)

loop4.cluster51 

   -3  1 
C         48.41011       37.29800       45.69539
C         49.02742       37.33915       47.05176
O         50.15585       37.77176       47.16436
H         47.52024       37.95966       45.69023
H         49.13176       37.66557       44.93214
H         48.11913       36.25822       45.44833
N         48.31495       36.95693       48.15016
C         48.81514       37.06600       49.51953
C         49.47192       38.43000       49.74944
O         50.53459       38.52561       50.33914
C         49.52052       35.75139       49.98150
C         50.71143       35.39779       49.14422
O         50.70676       34.41019       48.42302
O         51.71982       36.27996       49.11937
H         47.33061       36.68321       48.02010
H         47.91886       37.11222       50.17491
H         48.76894       34.93364       49.91129
H         49.83283       35.83286       51.04542
N         48.80077       39.54258       49.31705
C         49.13157       40.95447       49.54893
C         48.77759       41.43217       50.95346
O         48.45063       42.59954       51.12280
C         50.50434       41.43237       48.97567
C         51.49882       41.81421       50.10381
C         50.26590       42.63695       48.03246
C         52.91429       42.07614       49.60127
H         47.93298       39.37394       48.78667
H         48.34098       41.45385       48.94119
H         50.93040       40.61236       48.35692
H         51.56213       41.00048       50.85821
H         51.12672       42.73052       50.61408
H         51.19005       42.99390       47.54130
H         49.57506       42.34084       47.21371
H         49.80463       43.48239       48.58919
H         53.35822       41.11769       49.26790
H         52.94082       42.82026       48.78656
H         53.54039       42.49166       50.41055
N         48.71991       40.54054       51.98014
C         48.09829       40.80546       53.26118
C         48.97834       40.58401       54.52054
O         48.69080       41.25375       55.50205
C         46.84018       39.91271       53.32717
C         45.97508       40.07754       52.09566
O         45.51058       41.29345       51.74930
O         45.72335       39.11297       51.38927
H         48.96180       39.58203       51.78716
H         47.74056       41.85973       53.29693
H         46.24510       40.16748       54.22594
H         47.14915       38.84494       53.39452
N         49.97675       39.64091       54.66002
C         50.42604       38.76420       53.59875
C         51.41528       37.68746       53.99983
O         51.03874       36.52491       53.94048
H         50.41723       39.53871       55.58812
H         50.89573       39.36219       52.79041
H         49.53823       38.20831       53.23436
N         52.72548       37.92517       54.30023
C         53.36403       39.23250       54.41599
C         54.12880       39.53526       53.13044
O         54.71619       38.61517       52.57857
C         54.35152       39.14184       55.59998
C         55.09356       40.41804       55.87131
O         54.44398       41.48630       56.36935
O         56.29840       40.47594       55.68269
H         53.33362       37.09552       54.40622
H         52.60167       40.00190       54.61707
H         55.09169       38.34150       55.37172
H         53.81131       38.84605       56.52513
N         54.17607       40.77586       52.55495
C         53.66735       42.01233       53.14211
C         54.73104       43.09538       53.13193
O         54.38781       44.26875       53.13311
H         54.65200       40.85626       51.64192
H         53.29045       41.91604       54.17225
H         52.81379       42.36504       52.53616
N         56.05281       42.76387       53.16666
C         57.12531       43.75450       53.22170
C         57.50766       44.31645       51.86157
O         58.41715       45.13560       51.81247
C         58.38232       43.14626       53.89223
C         59.01704       41.95705       53.14324
C         60.25109       41.49347       53.87402
N         60.25962       40.31460       54.53043
O         61.24691       42.19790       53.89876
H         56.29363       41.77148       53.25487
H         56.80889       44.59352       53.88190
H         58.10025       42.80479       54.91198
H         59.14312       43.95019       54.00452
H         59.28896       42.22614       52.10350
H         58.29879       41.11700       53.08434
H         59.41708       39.72432       54.56384
H         61.10525       40.01711       55.03805
N         56.89713       43.91980       50.70672
C         57.39912       44.35898       49.40823
C         58.74079       43.69286       49.14583
O         58.99331       42.62170       49.67775
C         56.35856       44.13735       48.28012
C         56.91452       44.54481       46.90376
C         55.10188       44.97417       48.57875
H         56.09818       43.27063       50.74077
H         57.56536       45.45950       49.45240
H         56.06946       43.06786       48.23616
H         57.71116       43.83982       46.58291
H         56.11897       44.52528       46.13430
H         57.32357       45.57624       46.92981
H         55.36079       46.05370       48.64172
H         54.34300       44.83672       47.78044
H         54.63918       44.67103       49.54030
N         59.69438       44.36108       48.43483
C         61.07682       43.92537       48.25605
C         61.29326       42.80725       47.23830
O         62.24972       42.90552       46.48187
C         61.83155       43.70161       49.58189
C         61.67589       44.88463       50.51481
N         61.36200       44.68967       51.81212
O         61.85001       46.02081       50.10000
H         59.45483       45.29612       48.07375
H         61.60270       44.79752       47.80178
H         62.91206       43.59437       49.34573
H         61.50873       42.76344       50.08376
H         61.25498       43.73793       52.16876
H         61.25731       45.48469       52.45973
N         60.45767       41.72985       47.13210
C         60.68469       40.67342       46.15367
C         59.40598       39.98471       45.71813
O         58.58871       39.61417       46.54553
C         61.70294       39.63832       46.66285
C         61.37934       39.03156       48.00777
C         60.54960       37.90090       48.12662
C         61.96273       39.57814       49.15978
C         60.32633       37.32123       49.38072
C         61.73392       39.00297       50.40935
C         60.92410       37.86499       50.52324
O         60.72618       37.28345       51.72316
H         59.64609       41.64240       47.74279
H         61.13813       41.11158       45.23692
H         62.69069       40.13998       46.73820
H         61.85134       38.83320       45.90875
H         60.09294       37.45537       47.25581
H         62.60126       40.44904       49.08451
H         59.70086       36.44036       49.46337
H         62.19692       39.43538       51.28637
H         61.16021       37.61386       52.52309
N         59.26386       39.67030       44.39916
C         58.23888       38.78129       43.86784
C         56.81673       39.29527       43.91119
O         55.93086       38.50819       43.59471
C         58.33032       37.35498       44.46435
C         59.70273       36.66669       44.34347
C         60.30063       36.71347       42.96469
O         59.66557       36.32313       41.99850
O         61.55807       37.16870       42.79806
H         59.99035       39.97982       43.73831
H         58.44466       38.66103       42.78328
H         57.60681       36.71913       43.90796
H         58.02132       37.34570       45.53179
H         59.56170       35.60391       44.63551
H         60.42674       37.12084       45.04513
N         56.49352       40.59793       44.14900
C         55.11677       41.06686       44.00852
C         55.03946       41.95194       42.78204
O         54.31334       41.62581       41.85622
C         54.59539       41.77399       45.26681
C         54.91900       41.04503       46.57850
C         54.47672       39.61237       46.68938
O         55.30086       38.74006       46.90606
O         53.18085       39.28609       46.65869
H         57.24197       41.28534       44.34273
H         54.42284       40.21058       43.84893
H         53.49750       41.92917       45.16126
H         55.05818       42.77279       45.34960
H         54.45774       41.62623       47.39434
H         56.01740       41.07159       46.72813
N         55.81450       43.07405       42.69605
C         55.87237       43.90065       41.50617
H         56.92720       43.95912       41.16093
H         55.26412       43.49482       40.67111
H         55.51816       44.92332       41.74711
H         56.40927       43.34185       43.49231
Ca        52.60763       37.18228       47.26476
O         53.63034       38.37513       49.59844
H         54.35544       37.85688       50.02401
H         52.88578       38.31055       50.24182
O         51.80304       34.87506       45.80720
H         51.19945       34.89229       45.02383
H         52.37972       34.08232       45.67126
O         54.61622       35.04925       47.31795
H         55.24692       34.57899       46.71730
H         54.39846       34.38998       48.02339
O         53.86722       36.54025       44.82823
H         54.29305       36.05107       44.08220
H         53.96955       37.49760       44.60553

Ca 1.70



