%chk=loop2.cluster191.chk
%nprocshared=48
%mem=10GB
%nosave
#b3lyp/svp scf=(tight,noincore) Test 
#IOP(5/87=12) Density=Current Pop=(MK,readradii) iop(6/33=2) iop(6/42=6)

loop2.cluster191 

   -2  1 
C         54.04275       46.89363       11.92093
C         54.61424       47.92942       11.00004
O         54.42580       47.82165        9.79590
H         52.97814       46.69683       11.67847
H         54.62203       45.95410       11.78729
H         54.12766       47.20593       12.98220
N         55.42207       48.91458       11.48985
C         56.15881       49.80501       10.59687
C         55.23570       50.84726        9.98450
O         54.12798       51.03215       10.46979
C         57.34008       50.45559       11.36346
C         58.52988       50.87474       10.53149
O         59.61432       51.37793       11.14882
O         58.57103       50.67453        9.32925
H         55.62793       48.92577       12.50089
H         56.58403       49.15290        9.80265
H         57.76144       49.69660       12.05449
H         56.96595       51.30396       11.97965
N         55.63453       51.56421        8.89768
C         54.79113       52.55780        8.24343
C         53.56774       51.87851        7.64530
O         53.57293       50.65677        7.55695
C         55.61492       53.20639        7.11777
H         56.56055       51.38126        8.50325
H         54.51964       53.31881        9.00172
H         55.10731       54.05095        6.62650
H         56.57066       53.59008        7.53213
H         55.85689       52.44387        6.34311
N         52.47955       52.54715        7.16776
C         52.22256       53.99233        7.24064
C         52.20166       54.52948        8.67407
O         52.06748       53.75523        9.60543
C         50.91633       54.33416        6.45499
C         49.66260       53.63443        6.97125
O         49.68709       52.30146        7.19560
O         48.64806       54.26920        7.18836
H         51.79083       51.95490        6.69617
H         53.04542       54.50424        6.71626
H         51.07801       53.99483        5.40970
H         50.76508       55.43675        6.42738
N         52.47084       55.84792        8.91611
C         52.63151       56.40462       10.25754
C         51.85679       57.69789       10.42232
O         52.48209       58.74781       10.38564
H         52.67932       56.46343        8.11519
H         53.70906       56.65945       10.36447
H         52.41353       55.69127       11.07449
N         50.50428       57.75129       10.59587
C         49.64072       56.58581       10.73295
C         49.89900       55.89141       12.07385
O         49.72137       56.50992       13.11590
C         48.15279       57.02302       10.65959
C         47.84197       57.85409        9.42871
N         47.97056       57.33564        8.18886
O         47.47235       59.01125        9.56067
H         50.06979       58.68705       10.63383
H         49.83294       55.90676        9.87719
H         47.91670       57.64171       11.55270
H         47.49052       56.12967       10.67581
H         48.27201       56.36733        8.06817
H         47.76314       57.90486        7.35414
N         50.32482       54.59926       12.11596
C         50.53967       53.84940       13.34400
C         49.23947       53.21533       13.75082
O         48.80487       53.37262       14.87762
H         50.43323       54.09267       11.23199
H         50.96255       54.48172       14.15536
H         51.27591       53.04256       13.13247
N         48.53762       52.52464       12.81441
C         47.17079       52.05248       13.02116
C         46.93596       50.82606       12.16724
O         47.80919       50.42809       11.41425
C         46.12907       53.15347       12.66978
C         46.25402       54.39732       13.55383
O         46.26185       53.51509       11.32157
H         48.96021       52.41754       11.89058
H         47.05369       51.71344       14.07223
H         45.10889       52.73977       12.83006
H         45.58299       54.21099       11.12191
H         46.08590       54.12961       14.61731
H         47.24435       54.87606       13.42776
H         45.48782       55.14289       13.25526
N         45.75689       50.15286       12.27214
C         45.60432       48.84307       11.67001
C         44.83231       48.82770       10.36891
O         43.75873       49.39763       10.24951
C         45.14284       47.77098       12.67702
C         46.16960       47.68955       13.83336
C         43.71648       48.01818       13.20848
C         46.09663       46.36883       14.58748
H         45.02407       50.50322       12.89776
H         46.61350       48.47138       11.39943
H         45.15694       46.80649       12.11862
H         46.02446       48.55445       14.51690
H         47.20990       47.74720       13.43985
H         43.39206       47.19077       13.86865
H         43.66396       48.95839       13.79669
H         42.98690       48.08324       12.37603
H         46.79358       46.40486       15.44970
H         45.07647       46.15727       14.95802
H         46.41772       45.54857       13.90889
N         45.32723       48.03302        9.38371
C         44.66493       47.71241        8.13036
C         45.29786       46.46386        7.53304
O         46.37480       46.05902        7.93021
C         44.68863       48.88606        7.12913
C         46.04273       49.52059        7.00579
O         46.20557       50.79700        7.40256
O         46.99051       48.89594        6.55454
H         46.18671       47.52506        9.60675
H         43.61365       47.43018        8.35814
H         43.99156       49.66782        7.48787
H         44.34244       48.55842        6.12239
N         44.62595       45.75895        6.60036
C         45.14157       44.51583        6.03371
C         45.36326       43.45546        7.14593
O         44.51766       43.34234        8.02264
C         44.12825       44.06673        4.96891
C         44.56978       42.91813        4.11334
C         44.07769       41.63075        4.36302
C         45.43715       43.13323        3.02582
C         44.44520       40.56754        3.53614
C         45.79285       42.06754        2.19375
C         45.29595       40.78600        2.44844
H         43.70537       46.11462        6.29773
H         46.09466       44.74644        5.51802
H         43.94264       44.92072        4.27749
H         43.15550       43.84418        5.45610
H         43.41238       41.45536        5.19893
H         45.81791       44.12559        2.81307
H         44.06199       39.57601        3.73413
H         46.44619       42.23607        1.34699
H         45.56658       39.96268        1.80109
N         46.48175       42.64987        7.17768
C         46.72929       41.62342        8.19341
C         47.59753       42.13058        9.35785
O         48.17857       41.31153       10.05831
C         47.51357       40.58952        7.36423
C         48.37755       41.46381        6.46720
C         47.40751       42.56598        6.06570
H         45.81680       41.12052        8.58283
H         48.07522       39.82621        7.94693
H         46.78767       40.05280        6.71160
H         49.17965       41.90616        7.09469
H         48.83850       40.93758        5.60206
H         47.94468       43.51242        5.84896
H         46.84267       42.22386        5.17951
N         47.73404       43.46345        9.61921
C         48.66813       44.00389       10.61209
C         48.49133       43.44429       12.01722
O         49.49086       43.30445       12.71075
C         48.65686       45.56403       10.61895
C         49.25935       46.10621        9.30207
C         49.41358       47.60954        9.18268
O         48.34916       48.43865        9.12231
O         50.52955       48.07506        9.02552
H         47.18274       44.12352        9.06520
H         49.69242       43.68784       10.30957
H         49.29569       45.93006       11.45229
H         47.62144       45.93386       10.79036
H         48.68397       45.74481        8.43279
H         50.27700       45.66922        9.21316
N         47.27489       43.08945       12.51260
C         47.15037       42.53474       13.84809
H         46.08553       42.33688       14.08791
H         47.71467       41.57822       13.92011
H         47.55791       43.24776       14.59753
H         46.42762       43.20985       11.93967
Ca        48.69684       50.59047        8.38358
O         51.09504       50.81604        9.88576
H         51.91731       50.29648        9.71519
H         51.15349       51.57149        9.25399
O         48.63124       53.00142        9.68475
H         48.73159       53.97442        9.57103
H         47.66963       52.83001        9.54254
O         50.24569       49.83069        6.24607
H         50.36467       48.88515        6.50721
H         50.33891       49.84703        5.26277

Ca 1.70



