%chk=loop1.cluster75.chk
%nprocshared=48
%mem=10GB
%nosave
#b3lyp/svp scf=(tight,noincore) Test 
#IOP(5/87=12) Density=Current Pop=(MK,readradii) iop(6/33=2) iop(6/42=6)

loop1.cluster75 

   0  1 
C         82.59290       49.53716       14.61953
C         82.25306       49.13718       13.21747
O         81.37802       48.30535       13.02792
H         83.41059       50.28857       14.62981
H         81.69753       49.99557       15.09117
H         82.91107       48.65099       15.20335
N         82.87790       49.74116       12.17107
C         82.47533       49.52334       10.79420
C         83.10405       48.24160       10.24512
O         84.31756       48.08990       10.30032
C         82.86264       50.75793        9.95987
C         82.10850       50.73675        8.67934
O         80.77207       50.88701        8.68689
O         82.68169       50.48926        7.63433
H         83.56774       50.48084       12.37134
H         81.35993       49.47108       10.76853
H         83.96124       50.77057        9.79901
H         82.57325       51.69654       10.47955
N         82.31942       47.27829        9.69290
C         82.77998       45.95759        9.28248
C         82.82317       45.73577        7.76212
O         83.09506       44.61907        7.35225
C         81.86531       44.92235        9.97199
C         81.98012       44.91930       11.50801
C         83.39095       44.51107       11.97308
C         83.40372       43.93230       13.39475
N         82.97850       44.89064       14.41209
H         81.31985       47.46553        9.63341
H         83.82837       45.77494        9.59606
H         82.10763       43.89536        9.62407
H         80.80544       45.12235        9.69307
H         81.24935       44.16270       11.86312
H         81.69506       45.89834       11.95282
H         84.09631       45.36707       11.87656
H         83.75732       43.69011       11.32027
H         84.43497       43.58484       13.62558
H         82.73453       43.04294       13.41867
H         82.99433       44.41025       15.34124
H         83.63535       45.70303       14.43688
H         82.00337       45.21775       14.22913
N         82.63063       46.75868        6.87446
C         82.82699       46.59213        5.41937
C         83.71659       47.68098        4.78531
O         84.01458       47.55389        3.60106
C         81.46430       46.50135        4.69143
C         80.48656       47.50241        5.21369
O         80.83666       48.78390        5.31029
O         79.44530       47.12626        5.72375
H         82.34806       47.67793        7.23015
H         83.34976       45.63275        5.20527
H         81.02697       45.49778        4.88088
H         81.60381       46.60227        3.59287
N         84.21201       48.74761        5.48415
C         85.09065       49.74568        4.87794
C         84.40197       50.76656        3.97611
O         85.09920       51.50920        3.30159
H         84.03176       48.82316        6.49125
H         85.90182       49.22072        4.32654
H         85.57748       50.34097        5.67883
N         83.04493       50.90191        3.95447
C         82.35668       51.89421        3.11992
C         82.29320       53.29928        3.75252
O         81.75528       54.19435        3.11344
C         80.94286       51.37975        2.73125
C         80.00953       51.24683        3.88549
O         80.43000       51.54484        5.11187
O         78.86645       50.85976        3.71729
H         82.48729       50.28964        4.55267
H         82.89661       51.97334        2.15087
H         81.03463       50.38075        2.25379
H         80.47477       52.07899        2.00690
N         82.83115       53.57894        4.98373
C         82.82061       54.92842        5.55530
C         81.50873       55.33420        6.22278
O         81.39073       56.47742        6.63942
H         83.33117       52.84200        5.50019
H         83.09272       55.65893        4.76182
H         83.60616       54.99735        6.33745
N         80.48708       54.44649        6.36310
C         79.19702       54.74518        6.97253
C         78.77570       53.62920        7.91825
O         78.52333       52.51033        7.49462
C         78.10617       54.96092        5.89078
C         78.13396       56.40532        5.39857
O         78.27447       54.10616        4.78643
H         80.62988       53.50768        6.02364
H         79.26323       55.67632        7.57654
H         77.09123       54.81901        6.32859
H         78.35216       53.18066        5.12429
H         79.12853       56.66809        4.98532
H         77.35787       56.55154        4.61936
H         77.89965       57.08701        6.24703
N         78.66833       53.90430        9.23986
C         78.21292       52.95665       10.24803
C         76.69619       52.81611       10.16530
O         75.99864       53.81643       10.11561
C         78.68903       53.48450       11.63439
C         80.24575       53.40608       11.67036
C         78.08752       52.68851       12.80488
C         80.89355       54.08992       12.86948
H         78.93347       54.84965        9.55346
H         78.69503       51.96137       10.11361
H         78.34569       54.53876       11.73570
H         80.68569       53.88488       10.76879
H         80.54865       52.33581       11.65594
H         78.36243       53.15702       13.77048
H         76.98123       52.70513       12.76271
H         78.43765       51.63497       12.79027
H         80.68880       55.18081       12.83990
H         80.53827       53.66547       13.82746
H         81.99296       53.93553       12.81686
N         76.13079       51.57893       10.25029
C         74.68845       51.35131       10.30992
C         74.27173       51.10301       11.74248
O         75.10903       50.94146       12.60051
C         74.29386       50.11052        9.45922
C         74.47560       50.34548        7.96020
O         75.00795       48.97952        9.88439
H         76.74547       50.78444       10.40943
H         74.13750       52.25222        9.97344
H         73.21914       49.86928        9.60495
H         75.73837       48.78811        9.24734
H         74.24836       49.40105        7.41666
H         73.77654       51.13527        7.62539
H         75.52204       50.64273        7.74141
N         72.94847       51.04337       12.04738
C         72.44869       50.68646       13.37615
C         73.02158       49.33250       13.80672
O         73.57094       49.22895       14.89768
C         70.89341       50.64815       13.35136
C         70.26507       52.02620       13.07161
O         70.45720       49.73704       12.37434
H         72.27642       51.22851       11.29419
H         72.75979       51.44968       14.12672
H         70.55761       50.31839       14.36089
H         69.51612       49.50669       12.58030
H         70.48487       52.38407       12.04368
H         69.16027       51.95229       13.16765
H         70.62620       52.78318       13.79875
N         72.95482       48.26058       12.96931
C         73.48774       46.93058       13.27762
C         74.99617       46.92052       13.56435
O         75.39855       46.35897       14.57229
C         73.11405       45.90877       12.16752
C         73.57506       46.26736       10.74132
C         73.22367       45.17442        9.72824
C         73.65112       45.61392        8.31822
N         73.27428       44.62416        7.31102
H         72.49180       48.40631       12.06286
H         72.98198       46.55148       14.19480
H         72.00519       45.81169       12.14996
H         73.53471       44.92055       12.45326
H         74.66966       46.40614       10.71343
H         73.07528       47.20049       10.40916
H         72.12642       44.99535        9.74170
H         73.74495       44.23084       10.00306
H         74.75352       45.76899        8.29231
H         73.15806       46.58061        8.07122
H         73.54281       44.98499        6.36674
H         73.77128       43.72101        7.48502
H         72.23968       44.47132        7.32831
N         75.88065       47.53547       12.72749
C         77.33218       47.57954       12.95776
C         77.60680       48.18144       14.32563
O         78.32317       47.57998       15.11368
C         78.02706       48.38212       11.82386
C         78.01116       47.59578       10.49192
C         78.51724       48.37232        9.30779
O         78.02097       49.44061        9.00083
O         79.44060       47.82776        8.50442
H         75.49913       48.04424       11.92929
H         77.76463       46.55454       12.94226
H         79.08332       48.60137       12.07106
H         77.50614       49.34895       11.73567
H         76.98615       47.26301       10.25491
H         78.63496       46.68170       10.60052
N         77.00483       49.34032       14.69629
C         77.09599       49.88419       16.03067
H         76.57329       50.86522       16.06372
H         76.58373       49.20256       16.74446
H         78.15448       50.02780       16.32430
H         76.41391       49.82328       14.02496
Ca        79.83721       49.93541        6.93360
O         77.24945       49.10444        5.77920
H         77.61488       48.95769        4.87119
H         76.63791       49.87509        5.67713

Ca 1.70



