%chk=loop3.cluster118.chk
%nprocshared=48
%mem=10GB
%nosave
#b3lyp/svp scf=(tight,noincore) Test 
#IOP(5/87=12) Density=Current Pop=(MK,readradii) iop(6/33=2) iop(6/42=6)

loop3.cluster118 

   0  1 
C        105.09636       62.31558       18.81709
C        106.31841       61.46170       18.68215
O        106.20568       60.29329       18.34543
H        104.34639       61.80562       19.45672
H        105.35037       63.28368       19.30141
H        104.67530       62.51874       17.81334
N        107.54013       62.00637       18.91153
C        108.77833       61.24288       18.90364
C        108.79202       60.28614       20.09186
O        108.11260       59.27084       20.04070
C        110.02265       62.18009       18.80337
C        109.96601       63.48303       19.58207
O        110.22498       64.53100       19.01219
O        109.53260       63.52312       20.85655
H        107.57951       63.01257       19.11705
H        108.85694       60.61610       17.98541
H        110.13647       62.47544       17.73690
H        110.94396       61.60324       19.04217
N        109.58216       60.52025       21.17433
C        109.73457       59.59161       22.27154
C        110.95595       58.77195       21.91533
O        112.07709       59.16392       22.19772
C        109.76003       60.41564       23.57127
C        109.89759       59.61226       24.86531
C        109.68871       60.56915       26.05588
C        109.57948       59.87060       27.41608
N        110.79165       59.13754       27.77134
H        110.18758       61.34268       21.19042
H        108.86027       58.90350       22.34081
H        108.77850       60.94347       23.60568
H        110.56079       61.18623       23.52998
H        110.90266       59.13796       24.90959
H        109.11856       58.82145       24.88735
H        108.72638       61.10991       25.91403
H        110.50525       61.32457       26.07689
H        108.70845       59.17845       27.41120
H        109.38899       60.65328       28.18483
H        110.67492       58.74931       28.73517
H        110.94135       58.34214       27.11093
H        111.61715       59.77901       27.76006
N        110.77014       57.68873       21.11099
C        111.82416       56.92448       20.45735
C        111.47459       56.64608       18.97799
O        112.14423       55.82296       18.36133
C        112.13261       55.66564       21.30191
C        110.95930       54.77939       21.61050
O        110.57997       54.59458       22.89156
O        110.37626       54.19050       20.71613
H        109.80929       57.40321       20.91989
H        112.77856       57.49159       20.44636
H        112.54286       56.02177       22.27323
H        112.92502       55.06289       20.80988
N        110.46265       57.31014       18.33073
C        110.12942       57.09030       16.92234
C        108.73480       57.61184       16.55460
O        108.07025       58.17195       17.41657
H        109.93447       58.02497       18.84431
H        110.12081       55.99887       16.72584
H        110.91416       57.56513       16.29824
N        108.16086       57.42607       15.32459
C        108.81477       56.78220       14.18849
C        107.77598       56.27730       13.17886
O        107.02496       57.09159       12.66175
C        109.75300       57.79948       13.50084
C        110.38101       57.26959       12.23269
N        110.40537       58.03083       11.11249
O        110.88853       56.15854       12.22145
H        107.19166       57.75078       15.19466
H        109.42092       55.93853       14.55026
H        110.56599       58.06915       14.19587
H        109.19306       58.73368       13.26817
H        110.02430       58.98867       11.11830
H        110.84254       57.67522       10.24958
N        107.69530       54.96500       12.78130
C        108.45852       53.86323       13.34950
C        107.83139       53.44893       14.64777
O        107.79442       54.25299       15.56229
H        107.03195       54.72901       12.02701
H        109.53806       54.10003       13.44420
H        108.39811       52.99956       12.65457
N        107.23885       52.22477       14.77690
C        106.49767       51.82528       15.96478
C        106.95100       50.49391       16.48936
O        107.31059       49.61161       15.71586
C        104.99162       51.71492       15.68055
C        104.42571       53.05116       15.30540
C        103.75294       53.82558       16.26376
C        104.59144       53.54497       14.00471
C        103.26270       55.08690       15.92419
C        104.09819       54.80302       13.66540
C        103.43629       55.58081       14.62453
O        102.97799       56.80806       14.30864
H        107.25404       51.57591       13.97453
H        106.60292       52.58244       16.77846
H        104.49754       51.37562       16.61794
H        104.76541       50.95692       14.89882
H        103.63065       53.46085       17.27609
H        105.10326       52.95322       13.25648
H        102.76230       55.68585       16.67530
H        104.23509       55.17531       12.65919
H        103.15140       57.20557       13.44376
N        106.86895       50.25279       17.82046
C        107.20786       48.97241       18.41951
C        106.10226       47.93193       18.23698
O        106.34042       46.76579       18.51354
C        107.61420       49.19789       19.90221
C        106.41990       49.68074       20.77857
C        108.27762       47.94518       20.49802
C        106.84859       50.18959       22.14950
H        106.57772       51.03627       18.42254
H        108.11686       48.60348       17.89106
H        108.39345       49.99341       19.86477
H        105.68587       48.85654       20.89307
H        105.87992       50.52837       20.31525
H        107.52595       47.15693       20.70970
H        109.03709       47.53701       19.79694
H        108.80303       48.19781       21.44039
H        107.34920       49.39596       22.73598
H        107.53135       51.05867       22.03007
H        105.95026       50.52646       22.70864
N        104.85655       48.29212       17.79839
C        103.77999       47.32428       17.62574
C        102.91159       47.23615       18.87099
O        102.14927       46.28536       18.98699
C        102.93101       47.71094       16.40936
O        103.75415       47.88908       15.28674
H        104.64016       49.28325       17.64173
H        104.22333       46.31658       17.44832
H        102.40449       48.66392       16.65887
H        102.17251       46.92935       16.19037
H        103.37112       48.64512       14.76786
N        102.96805       48.19655       19.84709
C        102.27363       48.05325       21.12113
C        102.29055       49.34449       21.93971
O        103.33052       49.97447       22.05389
C        102.98252       46.96982       21.94702
H        103.54194       49.03574       19.69600
H        101.21770       47.74525       20.94911
H        102.46245       46.82156       22.91737
H        103.00098       45.99786       21.41288
H        104.03325       47.27369       22.14959
N        101.17344       49.71968       22.63542
C        101.14540       50.78373       23.64793
C        101.40538       52.20669       23.15441
O        101.45302       53.10365       23.98890
C        102.09185       50.43811       24.80590
H        100.32254       49.14506       22.53872
H        100.12412       50.78574       24.09159
H        101.91505       51.13590       25.65369
H        101.88763       49.40900       25.17059
H        103.15562       50.51675       24.50371
N        101.51931       52.51626       21.83194
C        101.65708       53.89550       21.36082
C        100.27919       54.44312       21.06574
O         99.91857       55.47185       21.62116
C        102.60442       53.97756       20.13357
C        104.07337       53.69524       20.50781
C        104.64326       54.74924       21.43606
O        105.11416       55.94652       21.01054
O        104.71746       54.49886       22.62662
H        101.36355       51.77480       21.13243
H        102.07764       54.55546       22.15310
H        102.55934       54.98574       19.66904
H        102.26022       53.23702       19.37775
H        104.71920       53.59856       19.61031
H        104.09543       52.71074       21.02809
N         99.43540       53.79149       20.22154
C         98.08984       54.26943       19.98677
H         97.49249       54.19407       20.92239
H         98.11252       55.32675       19.64884
H         97.60327       53.65134       19.20460
H         99.74435       52.92822       19.75324
Ca       105.71205       57.18599       19.19970
O        105.74208       59.70563       21.53081
H        104.76519       59.81619       21.64080
H        106.11333       60.61192       21.67755
O        105.12858       58.04179       16.63176
H        104.99143       58.99841       16.42868
H        104.46673       57.58174       16.06867
O        107.73808       56.29118       21.12769
H        107.98417       56.34911       22.08257
H        108.41402       55.68847       20.73445
O        103.36354       58.41812       19.72255
H        103.07899       57.73578       20.38129
H        102.94781       58.13383       18.87044
O        107.45082       55.25081       18.48585
H        107.22993       54.52356       19.11704
H        107.11423       54.91890       17.62620

Ca 1.70



