%chk=loop3.cluster117.chk
%nprocshared=48
%mem=10GB
%nosave
#b3lyp/svp scf=(tight,noincore) Test 
#IOP(5/87=12) Density=Current Pop=(MK,readradii) iop(6/33=2) iop(6/42=6)

loop3.cluster117 

   0  1 
C        104.64550       59.69237       19.45977
C        105.82703       58.82297       19.16444
O        105.66150       57.63175       18.94718
H        103.72748       59.08404       19.59982
H        104.84179       60.26852       20.38809
H        104.49244       60.40095       18.61879
N        107.07236       59.37258       19.14545
C        108.27196       58.59819       18.85585
C        108.46723       57.42972       19.80708
O        108.14483       56.32046       19.41736
C        109.56034       59.45908       18.74002
C        109.72710       60.52710       19.79660
O        110.63962       60.38514       20.77510
O        109.13288       61.58870       19.68502
H        107.14857       60.37821       19.33028
H        108.13126       58.14009       17.84974
H        109.57137       59.98104       17.76089
H        110.44296       58.77964       18.73985
N        109.04087       57.55505       21.03708
C        109.41794       56.35684       21.77261
C        110.57756       55.67836       21.03863
O        111.67421       56.22010       21.00655
C        109.80794       56.65708       23.22614
C        109.89454       55.34386       24.02204
C        110.36441       55.57892       25.45735
C        110.26288       54.30266       26.31041
N        111.27293       53.30362       25.95542
H        109.24996       58.48124       21.42534
H        108.52102       55.69972       21.81066
H        109.01947       57.28875       23.69327
H        110.76573       57.22078       23.25339
H        110.57723       54.62599       23.52333
H        108.87131       54.90300       24.04571
H        109.70431       56.34558       25.91492
H        111.40769       55.96762       25.46671
H        109.24190       53.86678       26.21637
H        110.41205       54.58707       27.37334
H        111.12769       52.94075       24.98693
H        112.22879       53.71942       26.04257
H        111.20048       52.50320       26.62488
N        110.37196       54.50107       20.39373
C        111.38811       53.77558       19.63895
C        110.99669       53.67033       18.16277
O        111.57363       52.86073       17.44875
C        111.58035       52.38307       20.28238
C        110.32814       51.54987       20.34582
O        109.75078       51.22342       19.32226
O        109.85364       51.13930       21.53784
H        109.43091       54.10622       20.41125
H        112.37988       54.27974       19.68320
H        111.95591       52.52938       21.31827
H        112.35130       51.81736       19.71821
N        110.07255       54.51779       17.62356
C        109.71277       54.51838       16.21718
C        108.21264       54.86362       15.95976
O        107.71783       55.73690       16.94128
H        109.75554       55.30263       18.19081
H        109.92660       53.52944       15.75618
H        110.35110       55.28271       15.72602
N        108.03438       55.52555       14.65247
C        108.64657       54.92598       13.44926
C        107.58436       54.23430       12.60071
O        106.67649       54.92316       12.15562
C        109.31352       56.07894       12.67750
C        110.21875       55.62052       11.56374
N        111.53739       55.93236       11.58943
O        109.76334       54.98042       10.62831
H        107.07870       55.92747       14.50269
H        109.45834       54.25251       13.73995
H        109.92387       56.65828       13.40468
H        108.54014       56.77018       12.27754
H        111.93454       56.47818       12.36933
H        112.16116       55.63374       10.82627
N        107.56016       52.89307       12.34111
C        108.51014       51.89575       12.80372
C        107.83835       51.10541       13.88295
O        107.65822       51.62798       14.96997
H        106.75135       52.53291       11.80980
H        109.47495       52.28041       13.17221
H        108.75519       51.24801       11.93457
N        107.33995       49.87129       13.61717
C        106.50891       49.12886       14.55306
C        107.06903       47.76087       14.78538
O        107.50500       47.10093       13.84845
C        105.08616       49.03951       13.98599
C        104.46273       50.40788       14.05516
C        103.98755       50.90581       15.28323
C        104.39784       51.21194       12.91166
C        103.44430       52.19099       15.35660
C        103.87680       52.50361       12.99208
C        103.39404       52.99536       14.21206
O        102.89080       54.24199       14.29211
H        107.46816       49.47989       12.67104
H        106.43580       49.63478       15.54408
H        104.44442       48.33042       14.55618
H        105.14895       48.66606       12.94023
H        104.03684       50.29577       16.17822
H        104.77881       50.84773       11.96696
H        103.07493       52.56597       16.30393
H        103.85224       53.12477       12.10723
H        102.91680       54.85014       13.54003
N        107.01672       47.24569       16.03925
C        107.52694       45.93797       16.40043
C        106.36133       44.97046       16.64154
O        106.54898       43.76935       16.53465
C        108.46645       46.14179       17.62853
C        107.63597       46.29730       18.93759
C        109.52037       45.03705       17.72949
C        108.42457       46.71287       20.17290
H        106.57724       47.82022       16.77277
H        108.10850       45.54322       15.53528
H        109.04107       47.07842       17.43877
H        107.13349       45.33103       19.15823
H        106.85381       47.07216       18.80507
H        110.26295       45.29156       18.51418
H        109.05989       44.05457       17.94960
H        110.08315       44.97633       16.77213
H        109.22487       45.98576       20.40780
H        108.85504       47.72634       20.03242
H        107.72766       46.74505       21.03924
N        105.12059       45.46005       16.96494
C        103.92786       44.64145       17.13133
C        103.40948       44.67695       18.56071
O        102.44473       43.97038       18.84050
C        102.84563       45.19251       16.18970
O        103.26580       45.12346       14.85549
H        104.99136       46.46665       17.09983
H        104.13930       43.57842       16.88047
H        102.65705       46.26104       16.44108
H        101.87596       44.66062       16.31368
H        103.17539       44.17321       14.58475
N        104.01059       45.42153       19.53593
C        103.61892       45.34770       20.93377
C        103.50038       46.70566       21.60080
O        104.27640       47.60055       21.28575
C        104.72080       44.58972       21.67870
H        104.84059       45.98471       19.30649
H        102.67780       44.76947       21.07060
H        104.46348       44.48592       22.75408
H        104.84586       43.57623       21.24351
H        105.68990       45.13089       21.59367
N        102.72539       46.82649       22.72019
C        102.91169       47.87127       23.72924
C        102.73496       49.31283       23.25825
O        103.10549       50.21995       23.99365
C        104.28243       47.66317       24.38537
H        102.09366       46.04662       22.96530
H        102.17258       47.70413       24.54442
H        104.40319       48.34279       25.25432
H        104.35370       46.61757       24.75908
H        105.10782       47.84152       23.66738
N        102.09419       49.60675       22.09697
C        101.85033       50.97369       21.63545
C        100.40236       51.33427       21.85679
O        100.12750       52.36120       22.46151
C        102.11488       51.06509       20.11774
C        103.58793       50.97769       19.71986
C        104.24881       52.33214       19.73700
O        104.71458       52.84287       18.57506
O        104.33757       52.97006       20.77173
H        101.69369       48.83043       21.54996
H        102.47109       51.72384       22.17967
H        101.69419       52.00265       19.68568
H        101.56781       50.22316       19.64258
H        103.62506       50.62254       18.66804
H        104.12974       50.23342       20.34235
N         99.41613       50.53545       21.36311
C         98.02213       50.91047       21.39690
H         97.49844       50.36213       22.20508
H         97.89548       52.00769       21.51484
H         97.57012       50.63785       20.42028
H         99.66083       49.63944       20.92023
Ca       106.04891       54.65511       18.13620
O        105.94202       55.78074       21.32933
H        106.06917       55.37963       22.22496
H        105.43919       56.61581       21.49838
O        104.13252       55.58698       16.57872
H        103.45554       56.10489       16.08127
H        104.55812       54.98902       15.91287
O        107.22983       53.29124       20.59760
H        107.79753       52.56754       20.24226
H        106.66971       52.83080       21.26375
O        103.42414       55.62072       19.72100
H        102.49720       55.58427       19.37777
H        103.32816       55.51633       20.70079
O        107.38238       52.46130       17.79038
H        106.76419       52.02594       17.15416
H        108.29431       52.25107       17.48203

Ca 1.70



