%chk=loop2.cluster66.chk
%nprocshared=48
%mem=10GB
%nosave
#b3lyp/svp scf=(tight,noincore) Test 
#IOP(5/87=12) Density=Current Pop=(MK,readradii) iop(6/33=2) iop(6/42=6)

loop2.cluster66 

   -2  1 
C         49.05364       45.94640       37.38920
C         48.75126       46.99130       36.36294
O         48.95716       46.75901       35.17987
H         49.90243       46.33255       37.99571
H         48.18790       45.75932       38.05437
H         49.38818       45.00476       36.92023
N         48.33508       48.21817       36.77420
C         48.40009       49.39433       35.92027
C         47.65333       49.27420       34.60509
O         46.43465       49.17202       34.58487
C         48.00561       50.64846       36.71990
C         48.19567       51.91630       35.93570
O         47.22278       52.84615       35.91558
O         49.24430       52.12477       35.34577
H         48.12026       48.34804       37.77580
H         49.47710       49.51529       35.67734
H         48.68002       50.69391       37.60174
H         46.95782       50.58120       37.08931
N         48.38082       49.30822       33.44947
C         47.81597       49.27764       32.11472
C         48.30617       48.03470       31.39766
O         49.49504       47.75417       31.46058
C         48.31576       50.49036       31.32161
H         49.40823       49.36620       33.51737
H         46.71343       49.34928       32.15177
H         47.85770       50.48845       30.30764
H         48.04382       51.43586       31.83232
H         49.42141       50.45432       31.19917
N         47.49857       47.28077       30.60369
C         46.08978       47.57362       30.36992
C         45.23892       47.30021       31.58262
O         45.54479       46.39437       32.35093
C         45.54092       46.84202       29.12486
C         45.58975       45.33620       29.14605
O         46.73062       44.68251       29.43461
O         44.61373       44.70122       28.78476
H         47.95128       46.52525       30.07421
H         46.00062       48.65110       30.10601
H         46.13931       47.18034       28.25665
H         44.48674       47.15974       28.95122
N         44.11816       48.04165       31.79776
C         43.16535       47.68699       32.82457
C         42.30217       48.84563       33.28585
O         42.51609       49.97137       32.85322
H         43.86133       48.76461       31.10650
H         43.69397       47.30184       33.72628
H         42.52745       46.88920       32.39202
N         41.31048       48.66581       34.20844
C         40.94737       47.35366       34.73397
C         41.32909       47.21085       36.19039
O         40.78535       47.88613       37.05095
C         39.45363       47.05914       34.51497
C         39.13786       46.82021       33.05822
N         39.66868       45.75434       32.40783
O         38.37834       47.57380       32.46946
H         40.78931       49.48908       34.54703
H         41.48251       46.54914       34.21147
H         38.85088       47.89863       34.92495
H         39.16898       46.13159       35.05873
H         40.28982       45.09271       32.89779
H         39.44183       45.57786       31.41824
N         42.23809       46.25134       36.51689
C         42.54640       45.86837       37.88538
C         43.25581       44.51568       38.01809
O         43.62223       44.17509       39.13557
H         42.69239       45.76984       35.74185
H         41.59269       45.73384       38.44257
H         43.12076       46.68419       38.37055
N         43.37389       43.63680       36.97038
C         43.84788       42.26879       37.11133
C         44.91929       41.93437       36.10548
O         45.23752       42.75003       35.24809
C         42.64529       41.31528       36.88038
C         41.71291       41.31503       38.08314
O         41.91350       41.70452       35.73877
H         43.01331       43.87139       36.04266
H         44.29251       42.08965       38.11557
H         42.99191       40.26194       36.77902
H         42.14221       41.09047       34.99572
H         41.29833       42.32683       38.27135
H         40.87935       40.60639       37.89749
H         42.27361       40.97364       38.97983
N         45.52015       40.71121       36.16168
C         46.49318       40.24897       35.18550
C         46.01837       38.97731       34.52217
O         45.08781       38.34009       35.00566
C         47.89184       40.06612       35.83938
C         48.45411       41.42267       36.32477
C         47.85180       39.07290       37.01843
C         48.83913       42.34171       35.16421
H         45.26233       40.07380       36.93254
H         46.56371       40.98048       34.35937
H         48.59378       39.64351       35.08620
H         49.37604       41.25464       36.92022
H         47.71435       41.93052       36.98332
H         48.88353       38.88178       37.38255
H         47.26042       39.47184       37.86963
H         47.42049       38.09875       36.70642
H         49.62715       41.86380       34.55134
H         47.98292       42.58794       34.51512
H         49.23781       43.29227       35.55486
N         46.58534       38.58323       33.35128
C         46.05324       37.48557       32.56327
C         47.11575       36.80863       31.73971
O         47.79766       37.45145       30.95561
C         44.89028       37.95390       31.67451
C         45.16697       39.22816       30.94333
O         44.48286       40.33260       31.29065
O         46.00300       39.27913       30.05523
H         47.28756       39.20521       32.91861
H         45.60903       36.71814       33.23508
H         44.02939       38.15003       32.34452
H         44.58462       37.15185       30.96381
N         47.21915       35.45866       31.80421
C         48.04169       34.66904       30.90429
C         49.52886       34.95195       31.13868
O         49.98722       34.74205       32.25254
C         47.65487       33.18878       31.12223
C         48.06302       32.27325       30.00831
C         49.33510       31.68904       29.98480
C         47.13782       31.96902       28.99235
C         49.67573       30.80516       28.95497
C         47.48498       31.09707       27.96300
C         48.75219       30.51189       27.94449
H         46.58823       34.96168       32.45371
H         47.72501       34.92039       29.87098
H         46.54037       33.15835       31.13289
H         47.95615       32.80010       32.11953
H         50.04939       31.90365       30.76981
H         46.14813       32.41219       28.99863
H         50.65302       30.34314       28.94224
H         46.76760       30.87279       27.18388
H         49.01587       29.82898       27.14876
N         50.34962       35.44546       30.15069
C         51.77460       35.70171       30.35018
C         52.08108       36.99837       31.09680
O         53.24337       37.24792       31.38893
C         52.28747       35.80136       28.90489
C         51.10405       36.43361       28.18655
C         49.92438       35.67443       28.78619
H         52.27079       34.85119       30.86660
H         53.25803       36.32918       28.77785
H         52.38843       34.77279       28.49436
H         51.03950       37.49237       28.52029
H         51.13980       36.42464       27.07719
H         49.01360       36.30356       28.69388
H         49.77666       34.68554       28.29723
N         51.10422       37.90407       31.36793
C         51.36996       39.22791       31.92303
C         51.47467       39.24255       33.44047
O         51.55774       40.32552       34.00321
C         50.27004       40.20034       31.44772
C         50.34714       40.38557       29.92403
C         49.43335       41.45927       29.43108
O         48.38825       41.87257       30.17334
O         49.67595       42.00564       28.36790
H         50.15878       37.70873       31.02658
H         52.32670       39.63599       31.52263
H         50.44599       41.19871       31.90631
H         49.26471       39.84421       31.75910
H         50.13728       39.44745       29.36959
H         51.38247       40.70482       29.67698
N         51.53936       38.09397       34.17226
C         51.63405       38.10548       35.61899
H         51.43153       39.10880       36.05234
H         50.88761       37.40056       36.03816
H         52.65158       37.78446       35.92410
H         51.57046       37.18108       33.70072
Ca        45.51088       42.12998       29.60179
O         46.27354       42.70727       32.24541
H         45.43958       42.61826       32.76964
H         46.79509       43.40586       32.71131
O         46.65940       42.33316       27.17015
H         46.56702       42.00782       26.24364
H         47.49145       41.91232       27.48880
O         43.43861       43.37277       31.12406
H         43.07998       44.19219       30.70204
H         42.68100       42.73673       31.11929

Ca 1.70



