%chk=loop2.cluster48.chk
%nprocshared=48
%mem=10GB
%nosave
#b3lyp/svp scf=(tight,noincore) Test 
#IOP(5/87=12) Density=Current Pop=(MK,readradii) iop(6/33=2) iop(6/42=6)

loop2.cluster48 

   -2  1 
C         47.37667       47.95045       22.34519
C         48.42621       48.49325       21.43264
O         48.50197       48.06611       20.28813
H         46.40653       47.90307       21.80594
H         47.67158       46.93659       22.68108
H         47.25008       48.61367       23.22637
N         49.30509       49.43209       21.88156
C         50.27031       50.04895       20.99336
C         49.49104       50.98192       20.09815
O         48.88203       51.92014       20.59586
C         51.36390       50.77965       21.80435
C         52.46528       51.39372       20.97534
O         53.47255       52.03996       21.59294
O         52.46675       51.30303       19.75743
H         49.27235       49.72348       22.87048
H         50.78875       49.25224       20.41116
H         51.84244       50.03486       22.47870
H         50.90189       51.57078       22.43086
N         49.44360       50.75873       18.76052
C         48.67651       51.59304       17.85038
C         47.88737       50.72083       16.88043
O         48.45764       49.77130       16.36006
C         49.65197       52.47104       17.08217
H         50.00780       49.98969       18.36678
H         48.02035       52.29389       18.40163
H         50.20803       53.10243       17.80948
H         50.37548       51.85417       16.51093
H         49.09609       53.14002       16.39195
N         46.60751       51.00270       16.49346
C         45.85236       52.16609       16.94818
C         45.41212       52.03460       18.39636
O         45.03920       50.95330       18.82490
C         44.68363       52.54325       16.00251
C         43.63520       51.49842       15.73420
O         43.93344       50.39812       15.02276
O         42.48194       51.69107       16.07867
H         46.19618       50.39841       15.76930
H         46.50844       53.05983       16.86745
H         45.10379       52.83916       15.01727
H         44.18806       53.44036       16.43428
N         45.41648       53.13148       19.20710
C         45.04722       53.06418       20.61440
C         44.72550       54.45401       21.15771
O         45.57909       55.32266       21.06324
H         45.69268       54.03992       18.80478
H         45.90124       52.64056       21.18238
H         44.20984       52.35365       20.74193
N         43.51521       54.77733       21.71340
C         42.42014       53.83094       21.83644
C         42.66380       52.78370       22.90112
O         43.40529       52.99313       23.85152
C         41.05606       54.48961       22.11855
C         40.66639       55.41343       20.99567
N         39.71380       55.04752       20.10647
O         41.23298       56.48761       20.86854
H         43.35586       55.75337       22.00324
H         42.28569       53.33123       20.84931
H         41.03767       55.02193       23.09446
H         40.29529       53.67727       22.18129
H         39.25294       54.12780       20.17485
H         39.46614       55.67233       19.32598
N         41.97374       51.62944       22.79052
C         41.99714       50.55535       23.76729
C         41.17029       49.33727       23.35974
O         41.00346       48.46116       24.19643
H         41.37670       51.57524       21.97213
H         41.58886       50.95674       24.71935
H         43.03913       50.20891       23.95086
N         40.65665       49.17766       22.09557
C         39.95938       47.98760       21.66623
C         40.73768       47.35193       20.55604
O         41.69339       47.93191       20.05956
C         38.53345       48.32557       21.16689
C         37.65192       48.78750       22.31916
O         38.55896       49.32866       20.17845
H         40.81130       49.85838       21.35220
H         39.90002       47.24137       22.48609
H         38.05261       47.40684       20.75898
H         38.80791       48.89733       19.31954
H         36.61106       48.92282       21.95737
H         37.65042       48.01531       23.11766
H         38.02152       49.74722       22.73704
N         40.38212       46.11817       20.13646
C         41.06443       45.42829       19.06335
C         40.07158       45.05837       17.98511
O         38.86776       45.17265       18.17761
C         41.83223       44.20232       19.62395
C         43.00416       44.62591       20.55248
C         40.88329       43.26972       20.40354
C         44.12700       45.38168       19.83265
H         39.60267       45.64432       20.61466
H         41.78835       46.10374       18.56342
H         42.25572       43.62601       18.77233
H         43.45464       43.71949       20.99347
H         42.63712       45.23797       21.40272
H         40.00869       42.98619       19.78175
H         41.41120       42.34425       20.70821
H         40.51466       43.75802       21.33168
H         43.79347       46.36775       19.45800
H         44.96746       45.55681       20.53749
H         44.50708       44.78853       18.97985
N         40.53661       44.65410       16.77842
C         39.68081       44.45041       15.62024
C         40.42126       43.65374       14.56889
O         41.54860       43.97798       14.22241
C         39.15241       45.78065       15.02715
C         40.16655       46.88771       15.09364
O         40.50009       47.32528       16.17288
O         40.70486       47.42921       13.99006
H         41.55772       44.60446       16.65016
H         38.79596       43.84048       15.90850
H         38.27995       46.13164       15.61792
H         38.79428       45.59548       13.99111
N         39.80208       42.58318       14.00551
C         40.43898       41.69524       13.04742
C         41.56198       40.93041       13.74431
O         41.31666       40.40735       14.82411
C         39.36366       40.73225       12.49651
C         39.91275       39.73404       11.51480
C         40.44842       38.52599       11.98536
C         39.88493       39.98834       10.13262
C         40.95113       37.58298       11.08952
C         40.39625       39.04184        9.23781
C         40.92722       37.83988        9.71670
H         38.82193       42.39404       14.27011
H         40.80573       42.29669       12.19199
H         38.57429       41.34097       11.99973
H         38.85694       40.18461       13.32189
H         40.46890       38.31666       13.04744
H         39.47536       40.91641        9.75166
H         41.35845       36.65298       11.46218
H         40.37988       39.23807        8.17348
H         41.31900       37.10634        9.02505
N         42.81368       40.78375       13.19364
C         43.85266       39.99511       13.83807
C         44.55314       40.72635       14.97389
O         45.45944       40.15806       15.56798
C         44.88759       39.78425       12.71323
C         44.09102       40.02259       11.43824
C         43.16399       41.15842       11.84411
H         43.41179       39.01918       14.14403
H         45.64378       40.60205       12.74181
H         45.42456       38.81122       12.76003
H         44.71743       40.24262       10.54620
H         43.46947       39.12428       11.24193
H         43.73240       42.11431       11.89102
H         42.32489       41.23027       11.12672
N         44.28704       42.04247       15.22844
C         45.14312       42.84736       16.09168
C         45.12950       42.42777       17.54253
O         46.01355       42.85436       18.27447
C         44.81954       44.34604       15.94407
C         45.18774       44.82684       14.53242
C         45.08110       46.31034       14.39600
O         44.21419       47.00409       15.15515
O         45.88290       46.90700       13.69554
H         43.54516       42.51686       14.70008
H         46.19118       42.70311       15.74592
H         45.42821       44.93069       16.66655
H         43.74752       44.53794       16.16361
H         44.58308       44.33254       13.74180
H         46.25204       44.56378       14.35298
N         44.18066       41.59296       18.04297
C         44.24273       41.13830       19.41288
H         44.30913       41.99825       20.09794
H         43.34012       40.54444       19.66047
H         45.15002       40.51576       19.55828
H         43.39875       41.27768       17.45143
Ca        42.31021       48.89864       14.56933
O         42.83488       48.99389       17.28088
H         43.62172       49.39962       17.71268
H         42.59500       48.24299       17.86882
O         41.77473       50.93761       12.72761
H         42.06838       50.53115       11.87482
H         40.79298       51.02067       12.63829
O         43.25720       48.27280       12.11138
H         44.11043       47.97463       12.50230
H         43.45912       48.39507       11.15376

Ca 1.70



