%chk=loop1.cluster70.chk
%nprocshared=48
%mem=10GB
%nosave
#b3lyp/svp scf=(tight,noincore) Test 
#IOP(5/87=12) Density=Current Pop=(MK,readradii) iop(6/33=2) iop(6/42=6)

loop1.cluster70 

   0  1 
C         65.46073       37.23260       47.93288
C         64.43368       36.91250       46.89435
O         63.27256       37.25453       47.07380
H         66.27688       37.83114       47.47669
H         65.01097       37.81450       48.76547
H         65.87654       36.28592       48.33420
N         64.80796       36.28061       45.74580
C         63.86268       35.96509       44.68231
C         64.05811       34.51085       44.23739
O         65.11159       33.94283       44.49149
C         64.09559       36.99224       43.55772
C         62.96383       37.19453       42.59116
O         61.79774       36.53729       42.72200
O         63.07531       38.04544       41.72540
H         65.80962       36.08378       45.59544
H         62.82785       36.09777       45.06774
H         65.04098       36.74627       43.03479
H         64.22692       37.99278       44.02660
N         63.07159       33.84321       43.57716
C         63.15160       32.43037       43.19639
C         64.45418       32.02113       42.49638
O         65.06454       31.07673       42.97760
C         61.88195       32.03600       42.39444
C         61.76465       30.56174       41.94238
C         61.90004       29.54656       43.09021
C         61.56001       28.11459       42.64012
N         61.84682       27.15287       43.70666
H         62.19297       34.33920       43.38486
H         63.11671       31.83866       44.13866
H         61.80082       32.67288       41.49036
H         61.00018       32.26006       43.03541
H         62.53130       30.33732       41.16875
H         60.76349       30.45035       41.46916
H         61.22346       29.81926       43.92774
H         62.94879       29.56833       43.45107
H         62.15669       27.84190       41.74229
H         60.48047       28.05692       42.37005
H         61.26867       27.36119       44.55279
H         61.62632       26.18652       43.37303
H         62.86195       27.19341       43.95702
N         64.97231       32.60855       41.37633
C         64.46595       33.79970       40.70999
C         65.58305       34.84958       40.64551
O         66.74565       34.50162       40.81602
C         63.95228       33.36200       39.32838
C         63.41057       34.48561       38.50159
O         63.85155       34.68883       37.38227
O         62.41839       35.25656       38.97781
H         65.82053       32.17624       40.97354
H         63.62360       34.23981       41.26952
H         63.13229       32.62897       39.49198
H         64.76209       32.84126       38.77022
N         65.29678       36.17351       40.47001
C         66.34854       37.18331       40.50854
C         65.84269       38.60017       40.30749
O         66.12095       39.46249       41.12966
H         64.31975       36.46129       40.33868
H         67.07638       36.97104       39.69755
H         66.88812       37.12436       41.48161
N         65.14756       38.91803       39.18114
C         64.89832       40.29580       38.75516
C         66.11596       40.76178       37.97500
O         66.52108       40.04823       37.06826
C         63.67948       40.34153       37.81274
C         62.42707       40.08241       38.57156
O         62.04608       40.88559       39.40890
O         61.76437       38.92885       38.35418
H         64.96838       38.16236       38.50354
H         64.66687       40.94177       39.62332
H         63.79891       39.57098       37.02289
H         63.58910       41.32508       37.31774
N         66.76503       41.93999       38.21759
C         66.27341       42.99213       39.09158
C         65.35884       43.94934       38.34949
O         64.93263       44.92958       38.94320
H         67.55478       42.18237       37.59775
H         67.15178       43.58890       39.42292
H         65.83045       42.60643       40.02634
N         65.07550       43.76491       37.02060
C         64.40360       44.74680       36.18860
C         65.27463       45.98186       36.15380
O         64.99975       46.91332       36.87695
C         62.91509       45.01477       36.55904
C         62.12440       43.73072       36.75909
O         62.29793       45.68713       35.49499
H         65.43262       42.93607       36.53143
H         64.36716       44.34238       35.15276
H         62.81374       45.59767       37.50493
H         62.55889       46.62831       35.56711
H         62.47084       43.21355       37.67292
H         61.04770       43.97463       36.89317
H         62.23083       43.07310       35.87013
N         66.44062       45.97112       35.44452
C         67.41741       47.06616       35.36505
C         66.92607       48.24502       34.51247
O         67.58324       48.56469       33.52887
C         67.98741       47.53799       36.74240
C         68.32289       46.33623       37.66675
C         69.24704       48.39999       36.48959
C         69.02466       46.73422       38.96921
H         66.67644       45.10330       34.93968
H         68.29130       46.63268       34.82401
H         67.23322       48.16849       37.26232
H         68.96384       45.59772       37.13929
H         67.37341       45.83595       37.94093
H         69.03272       49.24269       35.80238
H         69.62243       48.85397       37.42859
H         70.05571       47.77719       36.04630
H         68.44932       47.52044       39.50169
H         69.12647       45.84841       39.62991
H         70.05101       47.10342       38.76012
N         65.78615       48.93542       34.82042
C         65.29251       50.08361       34.07672
C         64.88146       51.19961       35.03494
O         64.89550       51.02367       36.24870
C         64.08677       49.67765       33.17982
C         62.87170       49.19174       33.98377
O         64.48611       48.71386       32.23553
H         65.22013       48.64313       35.60779
H         66.09074       50.46973       33.40279
H         63.73812       50.55792       32.59924
H         64.53651       47.83226       32.68711
H         62.08230       48.80757       33.30431
H         63.18358       48.38326       34.65511
H         62.44425       50.00985       34.60057
N         64.50627       52.39366       34.52304
C         64.10287       53.55603       35.31007
C         62.68868       53.43761       35.89695
O         61.75758       53.10665       35.18080
C         64.23748       54.79197       34.38219
C         63.66269       56.07194       34.97632
O         65.58700       54.99671       34.01482
H         64.58983       52.50374       33.49925
H         64.81633       53.71379       36.15139
H         63.66619       54.59374       33.44945
H         66.18696       54.70566       34.75343
H         62.56235       55.96208       35.08332
H         64.11610       56.29551       35.96299
H         63.84594       56.91165       34.27519
N         62.48181       53.76623       37.21191
C         61.18806       53.72851       37.91059
C         60.55658       52.37036       37.83470
O         59.35886       52.24508       37.57199
C         60.21244       54.84043       37.50321
C         60.74036       56.23911       37.83907
C         59.65706       57.30356       37.60530
C         58.64235       57.34999       38.76671
N         57.60915       58.35437       38.52619
H         63.29711       54.03928       37.77828
H         61.40431       53.88405       38.99235
H         59.27675       54.67827       38.07742
H         59.97210       54.77083       36.41960
H         61.61348       56.43648       37.18750
H         61.08470       56.30302       38.89693
H         59.15364       57.11579       36.63038
H         60.14479       58.29896       37.55607
H         59.19069       57.61187       39.70026
H         58.15127       56.36764       38.92659
H         56.99167       58.41444       39.36830
H         58.04376       59.29035       38.35816
H         57.03086       58.07557       37.70075
N         61.31855       51.28185       38.05237
C         60.77906       49.94493       38.04378
C         61.84589       48.88342       37.88798
O         61.57412       47.95791       37.15049
C         59.85731       49.60437       39.24459
C         58.80896       48.55691       38.80282
C         58.01881       47.99238       39.94443
O         57.25309       48.79397       40.70742
O         58.04564       46.79151       40.16545
H         62.33085       51.44054       38.10620
H         60.15374       49.90067       37.11869
H         59.29991       50.49344       39.60788
H         60.48263       49.22720       40.08563
H         59.30449       47.71421       38.27860
H         58.10614       49.03749       38.08324
N         63.08196       48.88726       38.49395
C         63.64724       49.84759       39.42484
H         64.50633       50.36301       38.93104
H         62.93776       50.57956       39.84354
H         64.05301       49.30183       40.29745
H         63.70452       48.11654       38.25536
Ca        60.99769       37.55404       39.98088
O         60.29907       39.69738       41.76575
H         60.94930       39.73236       41.03022
H         59.68080       40.43972       41.56133
O         58.44959       37.61361       41.31158
H         57.92082       38.35808       41.69344
H         57.90161       36.80577       41.46872
O         59.29283       37.08235       38.00322
H         59.40471       36.51716       37.20027
H         58.33374       37.31977       38.03491
O         59.95282       34.79595       40.53094
H         60.15732       33.93216       40.09294
H         59.36956       34.55898       41.29439

Ca 1.70



