%chk=loop4.cluster46.chk
%nprocshared=48
%mem=10GB
%nosave
#b3lyp/svp scf=(tight,noincore) Test 
#IOP(5/87=12) Density=Current Pop=(MK,readradii) iop(6/33=2) iop(6/42=6)

loop4.cluster46 

   -3  1 
C         59.89688       60.23760       77.56793
C         60.78742       59.21517       78.21941
O         61.86512       58.94086       77.71640
H         58.96471       60.38664       78.15612
H         60.42533       61.21294       77.52282
H         59.61661       59.91200       76.54686
N         60.38849       58.63524       79.38198
C         61.20205       57.71769       80.17753
C         62.44198       58.40944       80.68167
O         63.45539       57.75566       80.92811
C         61.42646       56.32906       79.55037
C         60.15681       55.83365       78.94884
O         59.72293       56.44663       77.84692
O         59.54556       54.88646       79.41556
H         59.47636       58.90465       79.77747
H         60.59713       57.51857       81.09009
H         61.77714       55.63034       80.34095
H         62.18256       56.35728       78.73713
N         62.37515       59.73400       80.99217
C         63.35428       60.43576       81.78521
C         62.59343       60.87966       83.03895
O         61.62610       61.62194       82.88966
C         63.92636       61.69584       81.07040
C         64.52869       61.45713       79.66254
C         64.95204       62.39201       81.99019
C         65.72113       60.50516       79.58986
H         61.51257       60.25343       80.75787
H         64.20474       59.75797       81.99275
H         63.09152       62.41185       80.90107
H         64.86185       62.44637       79.27492
H         63.73911       61.08641       78.97458
H         64.46456       62.74139       82.92491
H         65.77176       61.69819       82.27410
H         65.38901       63.28176       81.49196
H         65.40875       59.47226       79.83599
H         66.11938       60.51420       78.55140
H         66.53935       60.82334       80.26667
N         62.90899       60.48936       84.30139
C         64.00378       59.58383       84.60560
C         63.56275       58.13618       84.43177
O         64.41713       57.26137       84.45775
C         64.54764       59.84608       86.02211
C         64.94449       61.29339       86.20315
O         66.11467       61.59206       86.37271
O         64.00830       62.26383       86.19242
H         62.31656       60.82036       85.07669
H         64.86197       59.81422       83.94539
H         65.44118       59.20025       86.17146
H         63.79366       59.58275       86.79486
N         62.23995       57.80328       84.28423
C         61.74798       56.44110       84.14080
C         62.15705       55.57929       85.31033
O         62.09943       56.02841       86.44580
H         61.52538       58.54519       84.29973
H         62.12806       56.00704       83.18840
H         60.64088       56.46310       84.08442
N         62.68129       54.34877       85.06725
C         63.43475       53.59667       86.06090
C         64.92705       53.71418       85.74024
O         65.73330       53.15145       86.46945
C         62.96146       52.11516       86.16432
C         63.02069       51.25225       84.92212
O         62.78649       49.93099       85.02375
O         63.24386       51.72726       83.82632
H         62.68690       54.01260       84.09546
H         63.30506       54.04167       87.07218
H         61.91301       52.08113       86.52907
H         63.59630       51.62336       86.93258
N         65.36610       54.42839       84.65382
C         66.75146       54.48553       84.23141
C         66.98969       53.52543       83.07444
O         68.10249       53.45856       82.57513
H         64.69078       54.86690       84.01513
H         67.43506       54.20344       85.05759
H         66.98615       55.53571       83.94412
N         65.97909       52.72060       82.62500
C         66.10124       51.67787       81.62057
C         66.48040       52.22061       80.26135
O         67.30779       51.64839       79.56842
C         66.92734       50.47928       82.14145
C         66.10388       49.67908       83.17692
C         66.77128       48.40966       83.64427
N         66.08894       47.54483       84.43152
O         67.91295       48.14269       83.29868
H         65.04898       52.83587       83.02241
H         65.07442       51.28741       81.43556
H         67.90039       50.81760       82.56098
H         67.12713       49.78483       81.29928
H         65.15514       49.36936       82.68453
H         65.85103       50.30777       84.05804
H         65.11675       47.74627       84.71018
H         66.52491       46.66374       84.74152
N         65.80153       53.29895       79.78811
C         65.86820       53.76234       78.40589
C         65.15117       52.77085       77.52081
O         64.04370       52.37185       77.84920
C         65.18577       55.15294       78.30504
C         66.09223       56.20399       78.95986
C         64.88777       55.56615       76.85223
H         65.14755       53.77415       80.42894
H         66.92092       53.88085       78.06755
H         64.21421       55.12602       78.84519
H         66.38990       55.89910       79.98537
H         67.01495       56.34474       78.35443
H         65.55658       57.17140       79.02444
H         64.08732       54.92104       76.42742
H         64.52100       56.61235       76.81282
H         65.79586       55.46861       76.22044
N         65.72545       52.35867       76.35209
C         65.04583       51.42869       75.46189
C         65.09344       51.89613       74.01374
O         65.81011       52.82885       73.68749
C         65.66068       50.03286       75.68770
C         64.93185       48.92484       74.97477
N         63.60501       48.73199       75.17593
O         65.54059       48.20075       74.20222
H         66.66677       52.69383       76.10263
H         63.97176       51.39471       75.72989
H         65.60677       49.81122       76.77611
H         66.73511       50.04456       75.39638
H         63.07164       49.34433       75.81014
H         63.10374       47.98901       74.66881
N         64.32556       51.25601       73.08743
C         64.33513       51.58234       71.67000
C         62.91829       51.46700       71.11160
O         62.74405       51.30370       69.91069
C         65.36740       50.62190       71.05117
C         65.89043       50.94577       69.67741
C         66.36913       52.23468       69.37567
C         66.02279       49.92256       68.72674
C         66.98251       52.48820       68.14786
C         66.65712       50.17466       67.50760
C         67.14877       51.45660       67.21986
O         67.80299       51.69883       66.06673
H         63.75952       50.45395       73.38069
H         64.66911       52.62795       71.52488
H         65.01675       49.56878       71.13219
H         66.27690       50.70367       71.68677
H         66.29524       53.03853       70.09509
H         65.68252       48.91897       68.94994
H         67.35981       53.48010       67.93253
H         66.78930       49.36792       66.79847
H         67.99902       50.99045       65.43725
N         61.85040       51.54112       71.96066
C         60.46411       51.39470       71.55714
C         60.00704       52.51198       70.62284
O         59.48233       52.17659       69.57036
C         59.56743       51.16570       72.80226
C         59.93097       49.79541       73.43398
C         58.95211       49.32716       74.46757
O         57.77126       49.20974       74.18100
O         59.38636       48.93387       75.68004
H         62.02256       51.70160       72.96307
H         60.35780       50.45191       70.97423
H         58.50970       51.12695       72.46772
H         59.66416       51.97721       73.55213
H         60.95650       49.81724       73.86644
H         59.91594       49.02294       72.63718
N         60.19270       53.84889       70.85279
C         60.78748       54.44552       72.04543
C         62.12382       55.09829       71.70653
O         62.56353       55.04066       70.56417
C         59.80070       55.48735       72.62724
C         58.45591       54.85093       73.01439
C         57.44528       55.88347       73.45780
O         57.58059       56.61884       74.57433
O         56.45724       56.06988       72.77310
H         59.89363       54.49916       70.10675
H         60.98847       53.69618       72.82484
H         59.62567       56.27714       71.86091
H         60.23439       55.96748       73.52750
H         58.60537       54.07423       73.78256
H         58.03773       54.35300       72.11239
N         62.83627       55.73117       72.68118
C         64.11113       56.36643       72.42446
H         64.85263       55.61561       72.07879
H         63.99857       57.16528       71.66054
H         64.48846       56.82978       73.36201
H         62.46219       55.76699       73.63958
Ca        58.02311       55.87044       76.61119
O         56.66003       53.23895       78.37013
H         57.40962       52.59651       78.44501
H         56.14381       53.11338       79.20492
O         58.78540       53.23880       76.24370
H         58.08034       52.63395       75.90241
H         59.53960       53.13575       75.61315
O         55.65917       54.31403       75.57983
H         55.27519       54.60646       74.71624
H         55.77038       53.33604       75.48011

Ca 1.70



