%chk=loop3.cluster194.chk
%nprocshared=48
%mem=10GB
%nosave
#b3lyp/svp scf=(tight,noincore) Test 
#IOP(5/87=12) Density=Current Pop=(MK,readradii) iop(6/33=2) iop(6/42=6)

loop3.cluster194 

   0  1 
C         61.92470       36.92085       69.04477
C         61.77601       36.34536       70.41993
O         60.72269       36.49392       71.02307
H         62.94730       36.74824       68.64546
H         61.19132       36.45040       68.35924
H         61.74921       38.01544       69.08852
N         62.80364       35.65939       70.98323
C         62.73540       35.12684       72.33892
C         62.68353       36.27127       73.35775
O         63.04896       37.38942       73.03247
C         63.93044       34.18978       72.54147
C         64.17496       33.82240       73.95860
O         63.79339       32.64817       74.46183
O         65.07510       34.39340       74.52254
H         63.66169       35.51329       70.42679
H         61.81457       34.51552       72.44889
H         64.85541       34.70971       72.19393
H         63.83573       33.28172       71.90626
N         62.14012       36.05157       74.59409
C         61.91927       37.14324       75.55571
C         63.19862       37.55517       76.29116
O         63.23597       38.63682       76.86901
C         60.75470       36.79587       76.50843
C         59.46736       36.49613       75.70558
C         58.24947       36.27412       76.60366
C         56.99940       35.99953       75.75030
N         55.86621       35.61114       76.58737
H         61.76575       35.11675       74.80258
H         61.58088       38.02964       74.97502
H         60.57003       37.66796       77.17173
H         61.01770       35.91718       77.13893
H         59.60709       35.57704       75.09486
H         59.25609       37.34192       75.01650
H         58.07019       37.17606       77.23007
H         58.44853       35.40641       77.26765
H         57.20315       35.17593       75.03016
H         56.74273       36.91301       75.16622
H         55.66922       36.34574       77.30442
H         55.02210       35.48292       75.98350
H         56.07921       34.70216       77.05984
N         64.30027       36.75997       76.27008
C         65.64192       37.13749       76.70890
C         66.63188       37.12691       75.52847
O         67.81470       37.32738       75.74599
C         66.09645       36.23527       77.88536
C         65.98981       34.75820       77.64367
O         66.80849       34.18563       76.94944
O         65.02089       34.05019       78.25435
H         64.17933       35.82910       75.88186
H         65.65677       38.17677       77.10331
H         65.43278       36.46968       78.74143
H         67.13585       36.47652       78.20369
N         66.19233       36.96705       74.23753
C         67.07030       36.99875       73.07237
C         67.95570       35.77197       72.91036
O         68.71574       35.72623       71.95315
H         65.19257       36.88405       74.05436
H         67.67642       37.92923       73.09600
H         66.43201       37.04105       72.16085
N         67.90086       34.73223       73.78919
C         68.74138       33.54497       73.72441
C         67.90410       32.23596       73.52389
O         66.56839       32.41258       73.88563
C         69.58586       33.55302       75.00534
C         70.56787       32.42608       75.15256
N         71.52644       32.50824       76.10083
O         70.51528       31.44647       74.42486
H         67.27771       34.79982       74.59252
H         69.47022       33.61253       72.88613
H         68.95070       33.57867       75.91180
H         70.16824       34.50159       74.97351
H         71.59999       33.34987       76.69265
H         72.21101       31.74889       76.21896
N         67.96102       31.85327       72.09357
C         66.94759       30.89682       71.60070
C         66.92789       29.53433       72.25881
O         66.03428       28.76105       71.94147
H         68.91946       31.52795       71.84030
H         67.06738       30.77304       70.50500
H         65.93527       31.33235       71.76320
N         67.79469       29.19555       73.25624
C         67.47686       28.11017       74.17319
C         66.14343       28.44269       74.81697
O         65.96276       29.56222       75.24582
C         68.53664       27.96976       75.28248
C         69.69390       27.10689       74.85308
C         70.78502       27.62443       74.13566
C         69.67154       25.74196       75.18561
C         71.84524       26.78008       73.77279
C         70.71850       24.90493       74.81497
C         71.81357       25.41996       74.11262
O         72.83681       24.61462       73.76399
H         68.59264       29.80334       73.47712
H         67.39073       27.13148       73.64837
H         68.04532       27.42438       76.11930
H         68.86211       28.93595       75.72158
H         70.82333       28.67366       73.87192
H         68.83138       25.32476       75.72735
H         72.69283       27.18048       73.23084
H         70.67688       23.85560       75.07736
H         72.84088       23.67450       73.99818
N         65.17170       27.49765       74.91375
C         63.83131       27.69553       75.47114
C         63.79473       28.18247       76.90669
O         64.70187       28.85464       77.37150
C         62.79371       28.33892       74.50445
C         62.76918       27.51279       73.19565
C         63.01893       29.83316       74.25878
C         61.68802       27.92918       72.20580
H         65.40322       26.54522       74.59627
H         63.44942       26.65718       75.57296
H         61.79093       28.24783       74.98127
H         62.57192       26.44999       73.46008
H         63.75685       27.56522       72.69202
H         62.98986       30.36575       75.22754
H         63.98136       30.02772       73.74711
H         62.20159       30.26174       73.63986
H         61.86359       28.95744       71.83268
H         61.71866       27.24073       71.33495
H         60.68636       27.86238       72.68024
N         62.75736       27.78521       77.68844
C         62.70841       27.97389       79.13245
C         62.45285       26.65185       79.88399
O         62.63688       26.62695       81.09252
C         61.63156       29.01112       79.44459
O         60.41112       28.60822       78.88527
H         61.97411       27.30992       77.22430
H         63.68245       28.37014       79.50044
H         61.95773       29.97299       78.98520
H         61.52359       29.15105       80.54020
H         59.85563       29.42510       78.80105
N         61.99316       25.53000       79.23895
C         61.71060       24.24157       79.86607
C         61.05895       24.27461       81.25307
O         61.60700       23.68254       82.17333
C         62.97029       23.38500       79.79104
H         61.77735       25.56890       78.23928
H         60.96762       23.71298       79.22542
H         62.77752       22.37486       80.20967
H         63.25510       23.26559       78.72226
H         63.80380       23.87230       80.33622
N         59.84863       24.86605       81.48795
C         59.15896       25.71858       80.52940
C         57.82371       25.17793       80.08435
O         57.14909       24.55315       80.89078
C         58.93496       27.07535       81.18830
H         59.42558       24.75337       82.42424
H         59.76664       25.87252       79.65914
H         58.32099       26.95992       82.10834
H         59.91277       27.51437       81.46863
H         58.40975       27.76500       80.49856
N         57.27857       25.48199       78.86150
C         57.93508       26.17343       77.73451
C         57.89631       25.28964       76.49312
O         58.90654       25.20613       75.80721
C         57.31239       27.57226       77.49180
C         57.76188       28.21609       76.15850
C         57.22409       29.61063       76.00633
O         56.39493       29.85773       75.14468
O         57.67691       30.60051       76.79936
H         56.29934       25.19386       78.72269
H         59.00265       26.39609       77.89174
H         57.61924       28.22983       78.33631
H         56.20662       27.50908       77.48490
H         57.36463       27.59436       75.32723
H         58.87036       28.25422       76.06393
N         56.76585       24.61458       76.12990
C         56.70038       23.77927       74.94757
H         55.91974       24.18250       74.27149
H         57.66149       23.74028       74.39331
H         56.42709       22.74263       75.23825
H         55.91679       24.67812       76.70513
Ca        65.43380       31.97750       75.85265
O         65.70005       31.34647       79.07433
H         65.67356       31.78315       79.96150
H         65.10936       30.56026       79.17334
O         62.66467       31.98210       77.17357
H         62.55757       32.64436       77.90020
H         61.74281       31.68973       76.96076
O         67.93577       30.91224       77.10393
H         67.52153       30.08686       77.46229
H         68.54160       31.21852       77.82341

Ca 1.70



