%chk=loop2.cluster92.chk
%nprocshared=48
%mem=10GB
%nosave
#b3lyp/svp scf=(tight,noincore) Test 
#IOP(5/87=12) Density=Current Pop=(MK,readradii) iop(6/33=2) iop(6/42=6)

loop2.cluster92 

   -2  1 
C         61.83108       65.70830       11.25918
C         60.64245       66.36174       11.87873
O         60.77774       67.07348       12.86464
H         62.75168       65.94104       11.83087
H         61.66307       64.61064       11.26305
H         61.94233       66.05570       10.21024
N         59.41773       66.14517       11.34085
C         58.21087       66.70867       11.90586
C         57.95983       66.18839       13.32240
O         57.99060       64.98930       13.55533
C         57.02302       66.41463       10.98057
C         55.80497       67.03764       11.54864
O         54.85634       66.35475       11.84519
O         55.77832       68.34247       11.81370
H         59.34632       65.56008       10.49307
H         58.31596       67.81691       11.92961
H         56.87412       65.31919       10.85105
H         57.20522       66.87566        9.98834
N         57.66213       67.08055       14.30567
C         57.35352       66.72733       15.68785
C         56.11141       65.85236       15.79915
O         56.04707       65.02115       16.69602
C         57.13881       68.02381       16.48774
H         57.63719       68.07068       14.04967
H         58.22543       66.20292       16.13505
H         58.03478       68.67617       16.38345
H         56.25735       68.58066       16.10093
H         56.98489       67.81829       17.56684
N         55.06788       66.01249       14.93513
C         53.81987       65.25972       15.03001
C         53.82650       63.97402       14.19040
O         52.87390       63.21350       14.28792
C         52.65819       66.14720       14.51719
C         52.47081       67.42742       15.30173
O         52.66751       68.64589       14.75287
O         52.10502       67.36498       16.46135
H         55.14342       66.74341       14.21755
H         53.62827       64.98948       16.09355
H         51.69916       65.58607       14.57332
H         52.84339       66.37280       13.44944
N         54.82698       63.69599       13.29735
C         54.77108       62.55461       12.38472
C         53.59386       62.64604       11.42639
O         53.10286       61.61587       10.98363
H         55.62647       64.33079       13.21528
H         54.71867       61.61163       12.97131
H         55.69863       62.52003       11.77372
N         53.04855       63.85991       11.12483
C         51.81348       64.05069       10.39187
C         51.95925       64.98710        9.17626
O         51.00840       65.08821        8.41433
C         50.81083       64.56733       11.43454
C         49.40528       64.69408       10.93931
N         48.77831       65.89075       10.97702
O         48.81513       63.70664       10.52759
H         53.45885       64.68761       11.54020
H         51.45572       63.07202       10.00166
H         51.17761       65.54132       11.82350
H         50.79840       63.85266       12.28888
H         49.26579       66.72658       11.33320
H         47.80398       65.97742       10.65758
N         53.11957       65.66562        8.89913
C         53.38389       66.24208        7.58129
C         53.34708       67.75411        7.44345
O         53.70274       68.22498        6.37186
H         53.91150       65.61568        9.55234
H         52.69874       65.82145        6.81706
H         54.40461       65.90585        7.29280
N         52.95257       68.58523        8.45220
C         52.98544       70.04382        8.31318
C         54.16801       70.59093        9.06617
O         54.24356       70.48024       10.28193
C         51.67595       70.74547        8.73855
C         51.82913       72.27990        8.67767
O         50.64195       70.37047        7.86689
H         52.68696       68.17539        9.34674
H         53.12378       70.31233        7.24346
H         51.41361       70.49298        9.79286
H         50.18534       69.59058        8.27368
H         50.86393       72.78014        8.89624
H         52.56406       72.63505        9.43430
H         52.18344       72.60417        7.67468
N         55.14575       71.20514        8.35631
C         56.33834       71.76752        8.94646
C         56.03888       73.08860        9.62441
O         55.51893       73.99726        8.99184
C         57.40395       71.94421        7.83339
C         57.85447       70.57611        7.24667
C         58.64138       72.73610        8.29305
C         58.41620       69.58245        8.28211
H         55.05357       71.23978        7.32969
H         56.76201       71.05989        9.68441
H         56.95907       72.54960        7.01115
H         58.64016       70.79742        6.49647
H         57.02951       70.06466        6.70277
H         59.18000       72.23785        9.11775
H         59.33414       72.86016        7.43524
H         58.35957       73.75532        8.61983
H         59.11779       68.88301        7.78395
H         58.97027       70.07646        9.10181
H         57.59409       68.98998        8.73760
N         56.48786       73.28877       10.89198
C         56.50049       74.57840       11.55021
C         57.92870       75.10836       11.46887
O         58.80508       74.39508       11.01032
C         55.99960       74.42296       13.00083
C         54.60841       73.84525       13.04203
O         54.40167       72.70864       12.64428
O         53.58786       74.57419       13.53001
H         56.98870       72.53586       11.35708
H         55.85030       75.29784       11.00786
H         56.00279       75.41511       13.49855
H         56.67257       73.74570       13.57559
N         58.21961       76.38795       11.82316
C         59.54610       76.96674       11.58670
C         60.68180       76.23009       12.29788
O         61.72673       76.07300       11.67254
C         59.55409       78.47218       11.90796
C         60.88280       79.11631       11.57745
C         61.34814       79.17847       10.24909
C         61.67037       79.65540       12.60665
C         62.58579       79.76726        9.96493
C         62.90700       80.23720       12.31746
C         63.36530       80.29268       10.99900
H         57.46654       76.98616       12.18928
H         59.74450       76.88732       10.49306
H         59.31811       78.60894       12.98071
H         58.75822       78.98154       11.32174
H         60.75547       78.77524        9.43716
H         61.32948       79.61501       13.63315
H         62.94247       79.81522        8.94359
H         63.51082       80.64335       13.11792
H         64.32459       80.74339       10.77946
N         60.60616       75.75289       13.58139
C         61.66791       74.97546       14.20226
C         61.97777       73.71612       13.39722
O         63.13192       73.39408       13.17374
C         61.06775       74.57737       15.56297
C         60.06258       75.68334       15.82618
C         59.45823       75.91924       14.44731
H         62.56567       75.61899       14.34538
H         60.46748       73.64562       15.46395
H         61.82181       74.42120       16.36536
H         59.31979       75.46210       16.62276
H         60.63420       76.59599       16.10418
H         58.70692       75.14006       14.19602
H         59.01274       76.93051       14.42441
N         60.93623       72.96728       12.93209
C         61.09150       71.72735       12.16764
C         61.67801       71.98706       10.78195
O         62.10723       71.04457       10.12835
C         59.70558       71.07003       11.99686
C         59.00311       70.80054       13.35103
C         57.55030       70.49069       13.19261
O         57.05616       70.40145       12.08723
O         56.76938       70.36652       14.28068
H         59.98855       73.30852       13.12795
H         61.74862       71.03905       12.74207
H         59.77292       70.12186       11.41851
H         59.09230       71.78287       11.41033
H         59.01046       71.69475       13.99742
H         59.51950       69.98277       13.89422
N         61.68254       73.24116       10.25087
C         62.21700       73.55249        8.94633
H         63.28914       73.27482        8.89718
H         61.64666       73.02286        8.15711
H         62.12863       74.64775        8.76718
H         61.26865       74.00698       10.78127
Ca        54.18715       69.07662       13.17247
O         53.94694       71.10923       15.53802
H         53.87782       72.03126       15.18850
H         53.01871       70.87951       15.79196
O         51.70277       71.25760       13.10012
H         51.65419       72.24248       13.18743
H         51.30715       70.91657       13.94102
O         52.16068       68.39262       11.57924
H         52.85975       67.69348       11.53676
H         51.48517       68.02579       12.19530

Ca 1.70



