%chk=loop4.cluster84.chk
%nprocshared=48
%mem=10GB
%nosave
#b3lyp/svp scf=(tight,noincore) Test 
#IOP(5/87=12) Density=Current Pop=(MK,readradii) iop(6/33=2) iop(6/42=6)

loop4.cluster84 

   -3  1 
C         44.37955       47.66675       49.38436
C         44.75161       47.01996       50.68519
O         45.76367       46.34521       50.73332
H         43.46158       48.28241       49.47988
H         45.21087       48.31658       49.03681
H         44.20177       46.87765       48.62326
N         43.99087       47.19836       51.80253
C         44.28968       46.57627       53.09120
C         45.68251       46.91487       53.62145
O         46.19827       46.19267       54.44628
C         43.85895       45.08127       53.13703
C         44.48065       44.15181       52.13324
O         43.79577       43.65365       51.25317
O         45.76732       43.79957       52.24398
H         43.16758       47.81771       51.74604
H         43.60865       47.04282       53.83650
H         42.76364       45.06922       52.95225
H         44.02472       44.66081       54.15286
N         46.27358       48.09573       53.28566
C         47.53414       48.59408       53.84912
C         47.43439       48.90061       55.35122
O         48.45110       49.12002       55.99884
C         48.82722       47.82033       53.41814
C         50.00567       48.84501       53.33350
C         48.65284       47.09873       52.07033
C         51.38584       48.24327       53.10185
H         45.78553       48.71953       52.62876
H         47.63733       49.59760       53.37863
H         49.04625       47.03529       54.17320
H         50.07386       49.41573       54.27736
H         49.80884       49.57716       52.51645
H         48.34669       47.80303       51.26916
H         49.58662       46.58846       51.77015
H         47.89006       46.29985       52.16560
H         52.15367       49.04311       53.17153
H         51.60677       47.49280       53.86895
H         51.46493       47.77713       52.10830
N         46.21501       49.12336       55.91357
C         46.01755       49.80474       57.18568
C         44.93082       49.12192       58.02502
O         43.84338       49.66970       58.13887
C         45.72267       51.30391       56.89417
C         44.63358       51.64789       55.89881
O         44.40768       52.94083       55.60194
O         43.97464       50.78666       55.34066
H         45.38238       48.96899       55.33488
H         46.94833       49.86596       57.79030
H         46.65845       51.74951       56.48987
H         45.49857       51.81529       57.85475
N         45.14004       47.94180       58.68846
C         46.40391       47.22756       58.66982
C         46.43034       46.25000       57.51737
O         45.37240       45.95325       56.98159
H         44.37187       47.54587       59.25212
H         46.55662       46.68799       59.62941
H         47.22586       47.95542       58.63459
N         47.59089       45.70801       57.03863
C         48.90958       45.96307       57.60930
C         49.99970       45.71727       56.56739
O         49.98186       44.65905       55.95795
C         49.12705       44.99510       58.77967
C         50.38520       45.31520       59.53166
O         50.48196       46.46930       60.21974
O         51.31523       44.52597       59.53802
H         47.52073       45.06857       56.23357
H         48.95671       47.00686       57.94847
H         49.16881       43.95956       58.37261
H         48.28300       45.04329       59.49538
N         51.01374       46.59374       56.30552
C         51.34736       47.75200       57.12137
C         52.83752       47.78036       57.33800
O         53.46342       48.81087       57.13062
H         51.70715       46.30159       55.60251
H         50.91572       47.67499       58.13012
H         50.99041       48.69441       56.65624
N         53.47142       46.65460       57.77385
C         54.89092       46.61071       58.09844
C         55.84252       46.80789       56.91448
O         57.04166       46.86570       57.15075
C         55.23644       45.28200       58.81560
C         55.14224       44.03027       57.91240
C         55.67121       42.79751       58.60692
N         55.08336       41.59386       58.41728
O         56.67960       42.87227       59.29414
H         52.89993       45.81430       57.94204
H         55.07882       47.42849       58.82907
H         54.57995       45.15593       59.70452
H         56.28249       45.37431       59.18016
H         55.77794       44.17991       57.01658
H         54.10141       43.86051       57.55839
H         54.26877       41.49663       57.79451
H         55.47519       40.75071       58.86354
N         55.40697       46.88065       55.62142
C         56.34174       47.01317       54.50419
C         56.85646       45.64821       54.07650
O         56.07005       44.76130       53.77521
C         55.72426       47.84530       53.34789
C         56.65370       47.88292       52.11915
C         55.48491       49.28443       53.83898
H         54.40187       46.79864       55.41165
H         57.22416       47.60797       54.83040
H         54.75612       47.40457       53.02258
H         56.23545       48.55112       51.33626
H         57.66749       48.24691       52.39335
H         56.74663       46.87022       51.67189
H         54.76913       49.29576       54.68615
H         56.44088       49.74189       54.18143
H         55.07129       49.91514       53.02533
N         58.20615       45.44665       53.99446
C         58.84197       44.19465       53.60120
C         58.39878       43.75319       52.20995
O         58.62253       44.51032       51.27666
C         58.72762       43.12576       54.70909
C         59.34891       43.54743       56.02615
N         59.37187       42.68168       57.06381
O         59.84209       44.65882       56.15937
H         58.83204       46.23923       54.20339
H         59.93616       44.38930       53.50942
H         59.28242       42.22219       54.36867
H         57.66603       42.85818       54.88417
H         58.97290       41.73718       56.96428
H         59.79588       42.95630       57.96246
N         57.79351       42.54129       51.98235
C         57.54255       42.04246       50.62827
C         56.08964       41.93939       50.27946
O         55.22823       42.02700       51.14081
C         58.09520       40.60900       50.48897
C         59.56080       40.57548       50.73325
C         60.07220       39.92755       51.86519
C         60.42592       41.20867       49.83436
C         61.44398       39.93849       52.11017
C         61.79616       41.21414       50.07589
C         62.30974       40.58777       51.22182
O         63.63074       40.61215       51.47811
H         57.55450       41.92707       52.77171
H         58.00239       42.72286       49.87910
H         57.89848       40.18090       49.48150
H         57.56172       39.96476       51.22637
H         59.40643       39.43361       52.56418
H         60.03292       41.69885       48.95092
H         61.83136       39.45194       52.99535
H         62.45523       41.71154       49.37746
H         64.24618       41.08169       50.89796
N         55.77531       41.70833       48.96904
C         54.44478       41.40945       48.46779
C         53.42783       42.51514       48.63709
O         52.31342       42.34044       48.16577
C         53.98241       40.02872       48.97765
C         54.83150       38.87910       48.38547
C         54.79854       38.87628       46.87533
O         55.83921       38.90483       46.23712
O         53.61857       38.88317       46.22465
H         56.54055       41.69710       48.27965
H         54.51890       41.33342       47.36424
H         52.93498       39.85208       48.65654
H         54.00469       39.98452       50.08841
H         54.40836       37.91733       48.74072
H         55.88631       38.94045       48.73366
N         53.75833       43.72395       49.16211
C         52.86983       44.87483       49.15945
C         53.38691       45.90512       48.16461
O         52.58791       46.52230       47.47678
C         52.80240       45.50117       50.56426
C         52.41179       44.50605       51.67060
C         51.03794       43.92202       51.55643
O         50.67670       42.94681       52.40955
O         50.24687       44.31800       50.71500
H         54.70827       43.86663       49.51888
H         51.83935       44.59072       48.84539
H         52.09344       46.35331       50.54264
H         53.81048       45.89206       50.82192
H         52.47720       45.00911       52.65889
H         53.13999       43.67089       51.66599
N         54.73219       46.08468       47.98656
C         55.27646       47.01639       47.02836
H         56.34945       46.77252       46.86623
H         54.75804       46.93359       46.05039
H         55.21183       48.04591       47.43368
H         55.40688       45.51913       48.51061
Ca        48.11019       42.58381       51.55825
O         47.73283       41.05693       53.90778
H         47.51019       40.10672       54.06442
H         48.26424       41.32745       54.69777
O         46.92894       43.68003       49.29612
H         46.02848       43.53886       48.91504
H         46.87216       44.54089       49.77325
O         48.28299       43.82819       53.96382
H         48.98678       44.48369       53.74268
H         47.44933       44.34049       53.88138
O         46.41714       40.66752       50.69252
H         46.38574       39.74243       51.04008
H         45.57580       40.78565       50.18787
O         49.24600       42.05039       49.15596
H         48.74965       41.77484       48.34887
H         50.09034       42.42693       48.82122
O         49.24217       39.82305       51.64581
H         48.66256       39.08204       51.34053
H         49.51350       40.27637       50.81114

Ca 1.70



