%chk=loop2.cluster194.chk
%nprocshared=48
%mem=10GB
%nosave
#b3lyp/svp scf=(tight,noincore) Test 
#IOP(5/87=12) Density=Current Pop=(MK,readradii) iop(6/33=2) iop(6/42=6)

loop2.cluster194 

   -2  1 
C         96.19719       69.76567       45.02579
C         97.50930       70.32738       44.55292
O         97.51796       71.25733       43.75905
H         95.35315       70.18719       44.43925
H         96.19801       68.66413       44.87324
H         96.04119       69.97800       46.10362
N         98.67258       69.73910       44.94485
C         99.97141       70.11725       44.39570
C        100.47710       71.42021       44.97951
O        100.51107       71.57382       46.19444
C        100.98491       68.98529       44.61842
C        102.32205       69.30267       44.00440
O        102.41711       69.50505       42.80353
O        103.41974       69.36502       44.78053
H         98.61401       68.91117       45.55887
H         99.87495       70.21204       43.29122
H        100.59221       68.06418       44.13304
H        101.10434       68.79083       45.70453
N        100.92374       72.39946       44.13968
C        101.38195       73.70235       44.60675
C        100.23852       74.38675       45.33279
O         99.09413       74.05571       45.05189
C        101.85639       74.53032       43.40713
H        100.92758       72.20932       43.12709
H        102.23885       73.54316       45.29958
H        102.70173       74.00228       42.91295
H        101.03231       74.63907       42.66983
H        102.20440       75.53786       43.70882
N        100.43361       75.22060       46.39260
C        101.71660       75.76022       46.81018
C        102.25685       74.98346       48.00424
O        101.49955       74.30056       48.67885
C        101.57764       77.28720       47.11225
C        101.24048       78.14902       45.89210
O        102.01176       78.10955       44.94909
O        100.22969       79.07901       45.85453
H         99.61622       75.45609       46.95339
H        102.46573       75.62875       46.00925
H        102.56694       77.63812       47.47793
H        100.87104       77.45904       47.94122
N        103.59688       75.00304       48.28163
C        104.18280       74.27819       49.40258
C        104.07810       72.77189       49.25262
O        103.93767       72.29804       48.13223
H        104.22113       75.56559       47.68588
H        103.66989       74.62740       50.31896
H        105.26469       74.52005       49.48385
N        104.09743       71.92514       50.32541
C        104.22908       72.34828       51.72205
C        102.87936       72.32519       52.42317
O        102.83158       72.62095       53.61270
C        105.23718       71.42700       52.43104
C        106.60200       71.54771       51.80447
N        107.09618       70.54906       51.03742
O        107.25821       72.56467       51.97493
H        103.94301       70.91912       50.14866
H        104.60784       73.38596       51.80839
H        104.86535       70.38192       52.35771
H        105.32564       71.67328       53.51317
H        106.53564       69.70483       50.85118
H        108.02494       70.63931       50.60022
N        101.72414       72.04541       51.74668
C        100.41552       72.13993       52.36050
C        100.16612       73.55920       52.78533
O         99.88328       73.79655       53.94948
H        101.75362       71.80600       50.74493
H        100.33614       71.43918       53.22104
H         99.64031       71.86452       51.61318
N        100.27442       74.56261       51.86719
C        100.09173       75.96655       52.21437
C         98.84772       76.45969       51.51026
O         98.85360       77.51863       50.89546
C        101.37903       76.74783       51.84589
C        101.36500       78.16982       52.42812
O        102.49224       76.05118       52.35189
H        100.48771       74.32311       50.89127
H         99.90886       76.06013       53.30478
H        101.45245       76.78153       50.73163
H        103.30201       76.59865       52.17918
H        100.45409       78.73619       52.16132
H        101.43190       78.10997       53.53451
H        102.23899       78.73707       52.04464
N         97.73136       75.69021       51.51887
C         96.52007       76.04362       50.80410
C         95.84820       77.27301       51.40982
O         95.87209       77.44039       52.62256
C         95.53569       74.84384       50.70893
C         96.10512       73.60441       49.94868
C         95.06881       74.37597       52.10316
C         96.85349       73.87501       48.63781
H         97.77816       74.78205       52.00276
H         96.78128       76.29242       49.75618
H         94.65626       75.21657       50.14518
H         95.25314       72.92147       49.73263
H         96.82445       73.06093       50.59546
H         95.90234       73.90567       52.66787
H         94.68176       75.21639       52.71055
H         94.26867       73.61734       52.00810
H         96.23751       74.41498       47.89665
H         97.78453       74.44338       48.83952
H         97.16437       72.90748       48.18824
N         95.24163       78.18501       50.60029
C         94.56305       79.38033       51.06240
C         93.17438       79.50479       50.43810
O         93.03965       79.47673       49.21995
C         95.38627       80.64357       50.75996
C         95.57201       80.93475       49.30143
O         96.33247       80.13093       48.54128
O         95.04793       81.91966       48.80693
H         95.26968       78.03310       49.60148
H         94.47510       79.35875       52.16930
H         96.38414       80.57155       51.24331
H         94.84370       81.49680       51.22151
N         92.10400       79.72536       51.24010
C         90.74877       79.99452       50.76340
C         90.15019       78.81056       49.97902
O         90.11788       77.72165       50.52522
C         89.87462       80.27397       52.00627
C         88.44479       80.51283       51.62916
C         87.46246       79.57508       51.98108
C         88.09068       81.64798       50.88856
C         86.14355       79.75783       51.56600
C         86.77127       81.82687       50.47301
C         85.79902       80.87892       50.80522
H         92.28101       79.77447       52.25567
H         90.77254       80.91116       50.13853
H         90.26679       81.14939       52.57071
H         89.94841       79.38626       52.67376
H         87.72506       78.69293       52.55357
H         88.84291       82.37937       50.61688
H         85.39271       79.02328       51.82366
H         86.50696       82.69416       49.88369
H         84.77988       81.01193       50.47166
N         89.60748       78.96033       48.71688
C         89.00487       77.86223       47.95307
C         89.87240       76.63843       47.80355
O         89.35613       75.55237       47.56043
C         88.85810       78.49101       46.55699
C         88.53628       79.92791       46.88381
C         89.51529       80.22399       48.01890
H         88.03066       77.60520       48.42225
H         89.85443       78.51240       46.05110
H         88.13933       77.97345       45.88681
H         88.58864       80.64362       46.03616
H         87.49914       79.93191       47.29192
H         90.52612       80.51415       47.66272
H         89.06757       81.03474       48.61854
N         91.21770       76.76054       47.85782
C         92.14524       75.66430       47.66601
C         91.89244       74.58028       48.71648
O         91.77452       73.42043       48.35131
C         93.56786       76.24090       47.68037
C         93.82082       77.24909       46.49952
C         95.17903       77.89375       46.61224
O         95.72302       78.67911       45.66114
O         95.87191       77.60796       47.55405
H         91.60300       77.69741       48.04569
H         92.00475       75.20634       46.66171
H         94.29811       75.41315       47.59806
H         93.71188       76.74406       48.65707
H         93.06632       78.05942       46.47185
H         93.76410       76.68487       45.54456
N         91.68144       74.90678       50.02512
C         91.23605       73.91982       50.99350
H         90.25635       73.49450       50.67677
H         91.97466       73.09921       51.09150
H         91.08718       74.39723       51.98642
H         91.76913       75.88442       50.32881
Ca        97.93965       79.04763       46.21137
O         98.65518       80.26605       43.75259
H         97.97725       80.67918       43.16283
H         99.42823       80.88377       43.72853
O         97.96833       77.03966       44.54870
H         98.27034       76.36709       45.20366
H         98.80470       77.40465       44.16612
O         98.37572       77.18725       47.83154
H         97.81122       76.39814       47.65694
H         98.85513       76.97370       48.65487
O         99.55770       79.80965       48.69892
H         99.89720       79.11950       49.31923
H         98.75541       80.16728       49.15143
O         96.07734       81.69274       45.67405
H         96.47651       82.52196       46.03807
H         95.54084       81.32823       46.41984

Ca 1.70



