%chk=loop2.cluster206.chk
%nprocshared=48
%mem=10GB
%nosave
#b3lyp/svp scf=(tight,noincore) Test 
#IOP(5/87=12) Density=Current Pop=(MK,readradii) iop(6/33=2) iop(6/42=6)

loop2.cluster206 

   -2  1 
C         85.18742       77.18911        2.65178
C         85.10613       75.69699        2.87710
O         86.04744       75.16911        3.45052
H         86.13016       77.40753        2.10933
H         84.38372       77.66087        2.06955
H         85.22118       77.69826        3.63742
N         84.04916       74.91123        2.50476
C         82.80340       75.37583        1.89168
C         82.52342       74.67631        0.57116
O         83.22437       73.74255        0.21064
C         81.63671       75.24058        2.90685
C         81.40458       73.87616        3.51252
O         82.08360       72.91604        3.19408
O         80.44534       73.72356        4.44515
H         84.12983       73.90690        2.71758
H         82.84628       76.44125        1.63562
H         80.68863       75.57670        2.43590
H         81.85540       75.92792        3.75220
N         81.52355       75.14462       -0.23507
C         81.16643       74.59599       -1.54583
C         80.27391       73.36109       -1.48686
O         79.47286       73.17251       -2.39291
C         82.35427       74.47166       -2.51690
H         81.01476       75.98919        0.07173
H         80.49322       75.37057       -1.98269
H         82.52225       73.41381       -2.81199
H         82.16779       75.06976       -3.43402
H         83.29036       74.86306       -2.06745
N         80.28117       72.53676       -0.40164
C         79.25766       71.52582       -0.17594
C         79.03254       71.36636        1.33369
O         80.14248       71.33052        2.20288
C         79.46766       70.23017       -0.98701
C         80.76869       69.53219       -0.74559
O         80.99861       68.91320        0.42380
O         81.59936       69.46709       -1.63822
H         80.93681       72.73097        0.35974
H         78.28761       71.94382       -0.52376
H         79.41494       70.50124       -2.06122
H         78.63903       69.51356       -0.78732
N         77.82133       70.64867        1.73754
C         77.61695       70.73277        3.18312
C         76.18406       70.47263        3.54533
O         75.44878       71.41313        3.81370
H         77.04095       71.18300        1.28342
H         77.92673       71.71888        3.59824
H         78.22887       69.95220        3.65479
N         75.72033       69.19680        3.58695
C         74.36332       68.87649        4.00781
C         74.18327       69.19507        5.48309
O         75.14585       69.14704        6.23769
C         74.06902       67.38961        3.72911
C         74.11106       67.10783        2.24405
N         73.18784       67.65236        1.41514
O         74.98056       66.38022        1.78832
H         76.36484       68.43037        3.33808
H         73.64516       69.48947        3.41961
H         73.06585       67.10066        4.10799
H         74.83030       66.77114        4.25606
H         72.43522       68.25000        1.78724
H         73.21627       67.46062        0.40258
N         72.94537       69.49645        5.96233
C         72.68605       69.82839        7.35504
C         71.97581       68.68161        8.04128
O         71.83571       67.62803        7.43711
H         72.14208       69.47478        5.31652
H         72.06744       70.74948        7.36553
H         73.62170       70.03787        7.91711
N         71.52326       68.76744        9.32622
C         71.62387       69.96597       10.15907
C         72.89807       69.98174       10.99317
O         73.17969       71.00248       11.60209
C         70.39953       70.05643       11.10820
C         69.09187       70.28839       10.34334
O         70.31328       68.87238       11.86515
H         71.10798       67.91693        9.73905
H         71.64501       70.87612        9.52493
H         70.54601       70.92430       11.79107
H         69.67701       69.03653       12.60760
H         68.25153       70.37849       11.06556
H         69.15332       71.23719        9.76910
H         68.87436       69.45179        9.64739
N         73.69049       68.87389       11.09697
C         74.88366       68.77604       11.93466
C         74.55721       69.01615       13.41026
O         74.34796       70.16008       13.78537
C         76.06776       69.64216       11.41642
C         76.44286       69.30943        9.94774
C         77.29824       69.45968       12.33024
C         76.75076       67.83099        9.68843
H         73.41677       68.01990       10.59254
H         75.22632       67.73981       11.83288
H         75.80764       70.72439       11.43522
H         77.33740       69.91401        9.68202
H         75.62812       69.61904        9.25878
H         77.12747       69.95328       13.30990
H         77.50243       68.38566       12.51558
H         78.20363       69.91778       11.87943
H         77.47237       67.43156       10.42904
H         75.81711       67.23096        9.72623
H         77.18730       67.71343        8.67641
N         74.46509       68.00093       14.32582
C         74.59682       66.57978       14.00573
C         76.04723       66.15299       13.82039
O         76.40711       65.73046       12.73180
C         73.84684       65.66506       15.01587
C         74.08027       65.79562       16.50952
O         73.48510       64.91700       17.33614
O         74.72926       66.70915       16.98945
H         74.18586       68.26544       15.28015
H         74.05759       66.38131       13.05099
H         74.06769       64.61507       14.72278
H         72.75745       65.82529       14.87429
N         76.91639       66.19198       14.86733
C         78.30578       65.76195       14.78412
C         78.47088       64.47267       15.61251
O         77.52164       64.09669       16.27811
C         79.17206       66.97199       15.19397
C         78.97037       67.45383       16.61639
C         78.10617       68.53292       16.88923
C         79.68491       66.86440       17.67219
C         77.96933       69.01540       18.19504
C         79.55570       67.36211       18.97458
C         78.70166       68.43783       19.23471
H         76.59119       66.52235       15.77119
H         78.54308       65.52157       13.73412
H         78.87671       67.79454       14.50624
H         80.25013       66.84294       15.00478
H         77.53888       68.99762       16.09185
H         80.35972       66.03995       17.48143
H         77.30413       69.84531       18.39939
H         80.12616       66.92096       19.78165
H         78.60993       68.82640       20.24151
N         79.60654       63.68912       15.57273
C         80.82085       63.97495       14.84032
C         80.66007       63.90000       13.34505
O         79.58892       63.55453       12.85338
C         81.80712       62.92520       15.36502
C         80.90113       61.75686       15.70934
C         79.67881       62.44495       16.31341
H         81.22425       64.97075       15.09384
H         82.65737       62.68515       14.68948
H         82.21627       63.30014       16.32811
H         80.59023       61.28982       14.74786
H         81.35212       60.97462       16.35711
H         78.79266       61.79073       16.15905
H         79.80201       62.68691       17.39062
N         81.68848       64.30513       12.54977
C         81.52242       64.47069       11.11735
C         82.59230       65.41868       10.55545
O         83.25254       65.06001        9.59151
C         81.54002       63.06012       10.47086
C         80.93867       62.99541        9.06492
C         80.94211       61.57027        8.58089
O         81.54917       61.26608        7.56730
O         80.27581       60.62129        9.26923
H         82.56125       64.62602       12.99956
H         80.53833       64.96592       10.95094
H         80.93626       62.37135       11.09691
H         82.58370       62.66942       10.47489
H         81.50554       63.64041        8.36250
H         79.88498       63.34796        9.10136
N         82.86379       66.64616       11.10849
C         82.24762       67.17274       12.31429
H         81.23102       66.77246       12.49471
H         82.91100       66.96461       13.18397
H         82.16504       68.27656       12.23870
H         83.64058       67.19460       10.70802
Ca        81.73132       70.01541        3.22083
O         80.17619       67.86883        3.26615
H         80.48121       67.53468        2.38749
H         79.19703       67.95297        3.17374
O         83.58492       67.87149        2.91800
H         83.73253       67.10288        3.52356
H         83.42277       67.46751        2.02919
O         79.96081       70.19570        5.41101
H         79.23827       69.53462        5.55622
H         79.66875       71.00118        5.90436
O         84.67566       70.45440        4.44722
H         85.44122       69.84544        4.29326
H         84.99620       71.34044        4.14323
O         82.57762       68.41820        5.78356
H         82.00503       67.74012        6.22207
H         83.35581       68.51811        6.38735
O         83.36683       70.65666        1.09431
H         83.24478       70.05558        0.32063
H         82.79011       71.43177        0.89156

Ca 1.70



