%chk=loop1.cluster121.chk
%nprocshared=48
%mem=10GB
%nosave
#b3lyp/svp scf=(tight,noincore) Test 
#IOP(5/87=12) Density=Current Pop=(MK,readradii) iop(6/33=2) iop(6/42=6)

loop1.cluster121 

   0  1 
C         46.79849       39.40906        8.30110
C         47.18572       39.13386        6.88014
O         48.21366       39.62774        6.44029
H         45.78640       39.01239        8.52604
H         47.53201       38.90524        8.96318
H         46.80236       40.50050        8.50624
N         46.39883       38.33998        6.09794
C         46.75020       37.96951        4.73048
C         46.06244       38.87747        3.72149
O         45.37464       38.39860        2.82978
C         46.55932       36.44360        4.48410
C         45.16290       35.90649        4.69938
O         44.55200       35.40619        3.76914
O         44.61741       35.88817        5.93116
H         45.53388       37.96809        6.50631
H         47.82885       38.16425        4.56370
H         47.22879       35.87189        5.15818
H         46.87317       36.22393        3.43904
N         46.26440       40.22919        3.79497
C         45.78925       41.18999        2.80304
C         46.93034       42.15909        2.46858
O         47.30618       42.90754        3.36233
C         44.67053       42.05708        3.42268
C         43.40581       41.30389        3.83261
C         42.55282       40.89542        2.62377
C         41.19432       40.32258        3.05531
N         41.31506       38.99838        3.66603
H         46.80280       40.60055        4.58937
H         45.39516       40.66920        1.91132
H         44.38940       42.87764        2.72454
H         45.07361       42.52707        4.34740
H         42.79877       42.01457        4.43571
H         43.67027       40.44454        4.48228
H         43.08500       40.17827        1.96365
H         42.34584       41.81830        2.03782
H         40.54338       40.23981        2.15810
H         40.70372       41.02851        3.76345
H         41.67137       38.31673        2.95729
H         41.95064       39.01307        4.49372
H         40.36834       38.68903        3.98356
N         47.56253       42.25752        1.25840
C         47.46481       41.35302        0.11224
C         46.13449       41.39811       -0.60941
O         45.21667       42.03984       -0.11927
C         47.89005       39.93786        0.52683
C         49.16277       40.02247        1.28331
O         50.25336       40.58174        0.73742
O         49.20525       39.62659        2.43188
H         48.28600       42.99123        1.18171
H         48.21925       41.72608       -0.61547
H         48.06316       39.27220       -0.33416
H         47.12507       39.45595        1.16221
N         45.93589       40.79212       -1.81952
C         46.94964       40.04311       -2.56201
C         46.67254       40.08616       -4.05489
O         45.92629       40.95030       -4.49088
H         45.00017       40.87985       -2.24242
H         46.93071       39.00111       -2.20135
H         47.96935       40.46776       -2.42785
N         47.27018       39.23382       -4.93845
C         48.11358       38.10584       -4.56137
C         47.24632       36.97396       -4.03694
O         46.36074       36.50922       -4.74325
C         48.97305       37.69234       -5.77421
C         49.83934       36.49817       -5.49406
O         51.14624       36.66098       -5.21492
O         49.36691       35.37379       -5.54798
H         47.07407       39.37672       -5.94233
H         48.84104       38.42519       -3.78210
H         49.63100       38.56229       -5.99623
H         48.36617       37.49719       -6.68533
N         47.44440       36.49700       -2.77851
C         46.58220       35.49087       -2.18693
C         47.03904       35.19296       -0.78754
O         46.31645       35.47411        0.15972
H         48.21281       36.89160       -2.21338
H         46.60185       34.55015       -2.78081
H         45.53989       35.87780       -2.16479
N         48.25003       34.60447       -0.58751
C         48.74379       34.28792        0.74539
C         49.31712       35.54843        1.37888
O         49.45619       36.55985        0.70100
C         49.81691       33.15746        0.68684
C         49.34170       31.95301       -0.16115
O         50.16992       32.75536        1.99476
H         48.81643       34.35684       -1.41170
H         47.89230       33.90349        1.35270
H         50.73698       33.54154        0.19571
H         49.88597       31.81763        2.16097
H         48.37621       31.56063        0.22131
H         49.21627       32.22863       -1.22738
H         50.10385       31.14657       -0.13341
N         49.69369       35.54777        2.68491
C         50.32430       36.69757        3.32619
C         51.62867       37.11937        2.56551
O         52.19305       38.21732        3.20550
C         50.47571       36.43738        4.87182
C         50.89541       37.71311        5.65104
C         51.35664       35.22191        5.22609
C         50.73160       37.57992        7.16247
H         49.50490       34.70512        3.24115
H         49.61287       37.52930        3.24220
H         49.45327       36.19753        5.22484
H         50.23638       38.54357        5.32182
H         51.94894       37.99946        5.46571
H         51.33347       35.02884        6.31678
H         50.98044       34.29213        4.75738
H         52.40539       35.37202        4.91534
H         49.70135       37.24760        7.40940
H         51.46851       36.86430        7.57905
H         50.91006       38.56737        7.63754
N         52.55255       35.97687        2.45474
C         53.96606       36.06395        1.99886
C         54.88702       36.19092        3.19922
O         55.61663       35.25877        3.49027
C         54.31317       37.04043        0.82726
C         55.70757       36.65327        0.27410
O         54.31413       38.38172        1.24985
H         52.06704       35.25286        1.87864
H         54.16853       35.05332        1.57534
H         53.57412       36.91736        0.00470
H         54.80471       38.92398        0.57470
H         55.70356       35.59503       -0.06646
H         55.99145       37.28146       -0.59596
H         56.48736       36.76761        1.05755
N         54.86791       37.31945        3.95467
C         55.58558       37.56897        5.19112
C         57.06203       37.75509        4.96065
O         57.56195       37.39383        3.89843
C         55.22368       36.54469        6.30414
C         55.09418       37.19620        7.68282
O         56.17699       35.51327        6.38085
H         54.28568       38.08063        3.64112
H         55.19619       38.55854        5.52044
H         54.20516       36.14010        6.11094
H         55.89798       34.78795        5.77144
H         54.74512       36.44188        8.41843
H         56.05473       37.60564        8.04246
H         54.33681       38.01088        7.64549
N         57.81914       38.39645        5.89281
C         59.24899       38.54813        5.77573
C         59.80378       39.94833        5.44767
O         60.96369       39.95756        5.06658
C         59.92259       38.04162        7.06538
C         59.62848       36.58426        7.45954
C         60.09821       35.58569        6.39290
C         60.26758       34.18047        6.98482
N         60.77407       33.24993        5.97700
H         57.35910       38.74499        6.73556
H         59.60277       37.92063        4.92631
H         59.60310       38.69353        7.90849
H         61.02482       38.14004        6.96301
H         58.55312       36.41768        7.69438
H         60.20559       36.41448        8.39437
H         61.09036       35.89954        6.00648
H         59.37225       35.57440        5.54862
H         59.30125       33.81100        7.39128
H         61.00370       34.23057        7.82029
H         61.72013       33.55710        5.65097
H         60.85971       32.29827        6.40113
H         60.11847       33.20642        5.16398
N         59.18050       41.17545        5.56011
C         57.87438       41.55255        6.08783
C         57.73262       41.18068        7.55988
O         56.74398       40.60228        7.97386
C         56.72095       41.27284        5.08798
C         55.35747       41.78406        5.59261
C         54.26280       41.58310        4.59306
O         53.99074       40.35652        4.12765
O         53.57855       42.52617        4.23699
H         59.77046       41.98220        5.29332
H         57.87436       42.66562        6.12946
H         56.63927       40.21849        4.82769
H         56.96981       41.80366        4.14053
H         55.42824       42.86478        5.84230
H         55.05157       41.22571        6.49433
N         58.70832       41.57357        8.42617
C         58.58719       41.37296        9.85442
H         57.72217       41.95565       10.23817
H         58.45065       40.29758       10.08964
H         59.50619       41.74123       10.35844
H         59.54499       42.05125        8.06677
Ca        52.05042       39.99095        1.84839
O         53.02185       40.58316       -0.61920
H         52.68461       39.71137       -0.94768
H         53.45056       41.00735       -1.40120
O         50.91737       41.27914        4.43829
H         51.00063       41.26459        5.42380
H         49.96316       41.08410        4.27148
O         51.44216       43.35707        2.22327
H         51.41934       43.75404        3.13008
H         51.26879       44.11922        1.61620
O         54.40245       42.84624        1.34644
H         54.57020       43.70367        0.88284
H         54.86672       42.95311        2.21226

Ca 1.70



