%chk=loop4.cluster94.chk
%nprocshared=48
%mem=10GB
%nosave
#b3lyp/svp scf=(tight,noincore) Test 
#IOP(5/87=12) Density=Current Pop=(MK,readradii) iop(6/33=2) iop(6/42=6)

loop4.cluster94 

   -3  1 
C         46.75765       33.20775       44.47379
C         46.88630       32.52441       45.80305
O         47.62477       33.00618       46.64922
H         46.29300       34.20715       44.60359
H         47.76700       33.32719       44.02687
H         46.13609       32.61123       43.77338
N         46.16983       31.39288       46.06450
C         46.28888       30.63487       47.30650
C         46.06628       31.50959       48.54424
O         46.73497       31.31912       49.55294
C         47.62179       29.84250       47.28863
C         47.56114       28.75485       46.22974
O         48.33800       28.76476       45.12432
O         46.77373       27.83485       46.37708
H         45.50680       31.04748       45.35454
H         45.46240       29.88810       47.32514
H         47.79360       29.33347       48.26176
H         48.46409       30.54628       47.11929
N         45.09240       32.46910       48.53946
C         44.72999       33.27385       49.71561
C         44.14683       32.29981       50.75094
O         43.43825       31.39513       50.32716
C         43.66466       34.34733       49.30742
C         44.15378       35.29570       48.17295
C         43.27924       35.23188       50.51477
C         42.96980       35.95955       47.45405
H         44.56142       32.60500       47.66558
H         45.63479       33.80129       50.08831
H         42.77489       33.78676       48.94488
H         44.72836       34.77661       47.37922
H         44.83744       36.06013       48.60403
H         42.87414       34.62433       51.33992
H         44.17061       35.79617       50.87305
H         42.50802       35.98371       50.26580
H         43.32829       36.78643       46.80827
H         42.46401       35.20521       46.81180
H         42.21254       36.36978       48.14931
N         44.40526       32.32960       52.09464
C         45.04048       33.42042       52.83250
C         46.41191       33.05310       53.36963
O         47.06731       33.91871       53.93194
C         44.07466       33.89076       53.96240
C         43.85251       32.90004       55.08733
O         44.07587       33.27538       56.36086
O         43.41348       31.78349       54.86429
H         44.05936       31.53201       52.64212
H         45.20610       34.28116       52.16441
H         43.08396       34.11432       53.51554
H         44.45396       34.83434       54.41072
N         46.93211       31.80351       53.19802
C         48.27700       31.43078       53.60092
C         48.50653       31.54430       55.08873
O         47.77109       30.94739       55.86174
H         46.37353       31.08417       52.71980
H         49.00973       32.05347       53.04214
H         48.44799       30.37280       53.31533
N         49.53140       32.31503       55.55033
C         49.81462       32.51476       56.96907
C         49.26987       33.84815       57.45438
O         49.31113       34.09772       58.65269
C         51.34124       32.41084       57.26266
C         52.21679       33.37621       56.48692
O         52.33081       33.27840       55.27554
O         52.94091       34.30269       57.14059
H         50.08048       32.84027       54.85979
H         49.29660       31.73359       57.56956
H         51.70370       31.38402       57.05023
H         51.49777       32.60161       58.34808
N         48.75266       34.76558       56.58536
C         48.30268       36.08489       56.99652
C         49.44776       37.08468       57.05644
O         49.22041       38.26262       56.82246
H         48.71396       34.55258       55.58238
H         47.67969       36.05653       57.91566
H         47.62553       36.44377       56.18948
N         50.71916       36.66966       57.32267
C         51.91479       37.49493       57.24765
C         52.20108       37.90612       55.81204
O         52.75330       38.97512       55.59137
C         51.93992       38.68956       58.23110
C         51.48344       38.31792       59.64981
C         51.84854       39.39583       60.63718
N         53.14414       39.58572       60.98499
O         50.97441       40.07858       61.14962
H         50.87990       35.68717       57.55163
H         52.75696       36.83477       57.54994
H         51.29203       39.51911       57.87059
H         52.98807       39.06191       58.24829
H         51.95102       37.37311       59.99650
H         50.38020       38.17505       59.62427
H         53.88433       38.98745       60.58810
H         53.40235       40.30538       61.67614
N         51.85904       37.08241       54.77387
C         52.08463       37.46094       53.38527
C         53.46826       37.00422       52.98380
O         53.77934       35.82531       53.09577
C         50.98099       36.91582       52.44565
C         49.58594       37.34390       52.93342
C         51.19058       37.45695       51.01909
H         51.40876       36.17570       54.96881
H         52.01743       38.56982       53.30210
H         51.02380       35.80438       52.42327
H         48.80480       36.98544       52.23037
H         49.36389       36.91422       53.93207
H         49.52057       38.45184       53.00301
H         50.42399       37.04213       50.33213
H         51.10835       38.56689       51.01098
H         52.19035       37.17883       50.62548
N         54.36685       37.92207       52.54491
C         55.77311       37.64142       52.31757
C         56.15500       37.93726       50.88892
O         55.79289       38.98308       50.36104
C         56.56550       38.50916       53.31118
C         58.05579       38.53993       53.07397
N         58.78336       37.40120       53.02195
O         58.61236       39.61791       52.92731
H         54.05316       38.89920       52.43056
H         56.02525       36.57809       52.53019
H         56.35966       38.11723       54.33080
H         56.19184       39.55642       53.26626
H         58.33439       36.48083       53.12459
H         59.80050       37.44722       52.86026
N         56.95307       37.06190       50.21373
C         57.45640       37.33023       48.87731
C         57.78387       36.00376       48.20483
O         58.81998       35.86509       47.57518
C         58.70058       38.22939       49.04998
C         59.23941       38.94850       47.84247
C         60.29718       39.84720       48.04859
C         58.70431       38.79987       46.54837
C         60.80044       40.60393       46.99272
C         59.21557       39.55621       45.49033
C         60.25886       40.46780       45.71260
O         60.73973       41.22166       44.70485
H         57.30311       36.22694       50.71366
H         56.65115       37.83687       48.30032
H         59.51112       37.63386       49.53161
H         58.42351       39.03838       49.75850
H         60.71540       39.97483       49.04083
H         57.88970       38.11785       46.35049
H         61.60311       41.30685       47.17493
H         58.79206       39.44314       44.50089
H         60.36960       41.17031       43.81264
N         56.97003       34.93576       48.43910
C         57.33518       33.58700       48.04896
C         57.34330       33.38922       46.54564
O         58.36865       32.93756       46.05018
C         56.49093       32.55709       48.82930
C         57.02511       31.12612       48.64933
C         56.39310       30.18707       49.63607
O         56.52409       30.41392       50.95852
O         55.78955       29.20027       49.24893
H         56.13305       35.06362       49.02456
H         58.37090       33.40938       48.42207
H         55.41279       32.61597       48.57866
H         56.60324       32.82021       49.90626
H         58.11951       31.11057       48.84393
H         56.84817       30.78332       47.60652
N         56.29382       33.65386       45.71151
C         54.99580       34.23767       46.06742
C         54.69600       35.42072       45.13961
O         55.53304       35.77196       44.32062
C         53.91067       33.15102       45.92373
C         53.81233       32.58922       44.49629
C         52.78135       31.51974       44.42172
O         51.49285       31.83179       44.63779
O         53.09978       30.37420       44.14451
H         56.43579       33.42250       44.71817
H         54.95903       34.58187       47.11490
H         52.92401       33.55843       46.23733
H         54.15304       32.32242       46.62297
H         54.78220       32.15285       44.19082
H         53.53416       33.39159       43.77984
N         53.48771       36.05497       45.18610
C         53.13317       37.07905       44.22195
H         52.13403       37.50005       44.46387
H         53.88091       37.89873       44.22547
H         53.08000       36.63301       43.20344
H         52.78809       35.78360       45.88970
Ca        49.87940       30.28544       44.54775
O         51.32309       31.30947       41.63253
H         51.30743       32.29411       41.73736
H         50.87850       31.14234       40.76445
O         52.35946       28.25367       42.29974
H         52.25250       27.32474       41.97523
H         52.76108       28.74073       41.53700
O         50.78641       27.12555       44.77277
H         50.96261       26.29114       44.27015
H         50.27811       26.83265       45.57045
O         50.97917       29.69227       46.95768
H         51.33779       30.60389       47.10190
H         51.71896       29.08254       47.19657
O         49.09086       28.10591       41.99162
H         48.71858       27.24411       42.30681
H         48.68482       28.24020       41.09856

Ca 1.70



