%chk=loop2.cluster227.chk
%nprocshared=48
%mem=10GB
%nosave
#b3lyp/svp scf=(tight,noincore) Test 
#IOP(5/87=12) Density=Current Pop=(MK,readradii) iop(6/33=2) iop(6/42=6)

loop2.cluster227 

   -2  1 
C         92.80319       77.30849       43.87882
C         94.04145       77.94909       43.32610
O         93.98790       79.10997       42.95284
H         91.98807       77.37586       43.12685
H         92.97430       76.23546       44.10643
H         92.49131       77.82807       44.80746
N         95.18954       77.22301       43.20406
C         96.40651       77.72970       42.57960
C         97.20157       78.63848       43.50730
O         98.24340       78.23843       44.01334
C         97.24884       76.53976       42.06445
C         98.49557       76.93763       41.30770
O         99.22599       76.06999       40.85849
O         98.81435       78.23420       41.11684
H         95.16628       76.23134       43.48610
H         96.14449       78.30077       41.65980
H         96.61352       75.94758       41.36910
H         97.53503       75.89107       42.91914
N         96.85139       79.94725       43.60450
C         97.71347       80.96346       44.18267
C         96.95246       81.81707       45.17613
O         95.74297       81.93787       45.04483
C         98.20910       81.81545       43.01724
H         96.00740       80.26906       43.11687
H         98.58689       80.50130       44.68973
H         98.87569       81.19264       42.38178
H         97.34907       82.14886       42.39530
H         98.76759       82.70472       43.36041
N         97.56803       82.42984       46.23148
C         99.01470       82.47225       46.43886
C         99.47223       81.39444       47.39767
O         98.66289       80.59314       47.83652
C         99.44670       83.87800       46.91133
C         99.16152       84.94755       45.89594
O         99.57850       84.83830       44.75447
O         98.52990       86.07476       46.26455
H         96.97445       82.91014       46.91754
H         99.55833       82.26972       45.49807
H        100.54239       83.89553       47.05801
H         98.96726       84.12805       47.88437
N        100.79869       81.28017       47.70907
C        101.33789       80.21484       48.53674
C        101.09043       78.86962       47.87917
O        101.06062       78.81657       46.65783
H        101.46697       81.95614       47.31608
H        100.89704       80.27933       49.55397
H        102.43669       80.36418       48.62312
N        100.86385       77.72845       48.59433
C        101.09520       77.61308       50.03108
C         99.83863       77.71210       50.86867
O         99.95799       77.94084       52.06497
C        101.79771       76.28320       50.34490
C        103.18268       76.25029       49.75960
N        104.25968       76.30539       50.57517
O        103.33699       76.19519       48.54829
H        100.63786       76.86949       48.06828
H        101.76594       78.43011       50.37488
H        101.20035       75.41832       49.97181
H        101.87126       76.17798       51.44738
H        104.13781       76.38505       51.59574
H        105.21190       76.30155       50.18451
N         98.60178       77.53846       50.33333
C         97.39474       77.66700       51.13395
C         97.25537       79.06855       51.66727
O         96.83850       79.24769       52.80344
H         98.50193       77.31089       49.33378
H         97.38828       76.93117       51.96765
H         96.52100       77.45890       50.48095
N         97.57017       80.11928       50.86878
C         97.42108       81.50425       51.26219
C         96.28470       82.04046       50.45733
O         96.51700       82.59693       49.39828
C         98.75897       82.27731       51.07466
C         98.62940       83.76511       51.44722
O         99.73291       81.68273       51.89053
H         97.89673       79.92407       49.91646
H         97.13808       81.59850       52.33343
H         99.08973       82.21458       50.01208
H        100.61516       81.99122       51.55071
H         98.12555       83.88300       52.42911
H         99.63607       84.23243       51.51312
H         98.05537       84.32030       50.67496
N         95.00134       81.82391       50.86521
C         93.84038       82.34017       50.15922
C         93.04965       83.27894       51.07335
O         93.45042       83.50778       52.21238
C         92.96585       81.18139       49.57761
C         93.72373       80.22268       48.62662
C         92.24240       80.36765       50.65923
C         94.32243       80.90425       47.39818
H         94.84438       81.28945       51.73611
H         94.15873       82.96023       49.29363
H         92.18562       81.64320       48.97230
H         93.00532       79.46418       48.24156
H         94.52697       79.69291       49.17979
H         91.54804       79.64758       50.17465
H         92.95973       79.80401       51.28758
H         91.62357       81.02813       51.30194
H         95.08066       81.65107       47.68076
H         94.82415       80.14090       46.76599
H         93.53821       81.40647       46.79388
N         91.90576       83.86161       50.63390
C         91.13964       84.84674       51.38131
C         89.74132       85.01575       50.81657
O         89.56804       85.08583       49.60397
C         91.83336       86.22559       51.39152
C         92.46885       86.57124       50.07595
O         93.68502       86.07018       49.78339
O         91.93752       87.36236       49.31391
H         91.57905       83.62302       49.69807
H         91.00280       84.50788       52.43230
H         92.63605       86.25347       52.15332
H         91.08985       87.00390       51.68222
N         88.69092       85.16532       51.67138
C         87.33005       85.42053       51.23176
C         86.80423       84.28445       50.34622
O         86.80226       83.15190       50.81118
C         86.38382       85.55057       52.46264
C         84.96686       85.72278       51.97338
C         84.04669       84.66618       52.08789
C         84.59130       86.89830       51.30788
C         82.78376       84.77228       51.50041
C         83.32681       87.00145       50.72599
C         82.42810       85.93473       50.81068
H         88.88074       85.14820       52.68844
H         87.32614       86.38740       50.69611
H         86.67361       86.39368       53.12926
H         86.46541       84.61535       53.06203
H         84.32385       83.74655       52.58944
H         85.29295       87.71781       51.21191
H         82.08995       83.94398       51.55968
H         83.05430       87.89943       50.18822
H         81.45921       86.00648       50.33573
N         86.23226       84.51353       49.11127
C         85.56519       83.45867       48.36453
C         86.52954       82.41374       47.83874
O         86.08237       81.36536       47.39296
C         84.95170       84.16880       47.14767
C         84.98921       85.64642       47.49891
C         86.16539       85.79819       48.45540
H         84.78300       83.02782       49.03150
H         85.61372       84.04750       46.26378
H         83.93539       83.79813       46.88221
H         85.02688       86.32650       46.61897
H         84.06879       85.85878       48.07972
H         87.13449       85.95769       47.93735
H         85.93183       86.65719       49.10721
N         87.86798       82.67907       47.76281
C         88.83085       81.71907       47.24742
C         88.74071       80.46269       48.09476
O         88.56048       79.38560       47.54524
C         90.25809       82.29965       47.26416
C         90.48944       83.51301       46.33647
C         91.96672       83.93416       46.31724
O         92.14890       85.06681       45.51457
O         92.43126       84.26227       47.59175
H         88.21733       83.58827       48.09222
H         88.59796       81.46516       46.18992
H         90.96667       81.49888       46.95776
H         90.45040       82.60614       48.29598
H         89.85420       84.37031       46.64413
H         90.22840       83.22900       45.29567
N         88.75725       80.54465       49.45622
C         88.51062       79.38484       50.28673
H         87.50372       78.96918       50.05911
H         89.27916       78.60711       50.10415
H         88.52852       79.67343       51.35934
H         88.88532       81.46007       49.91408
Ca        93.45195       86.18686       46.99905
O         92.57012       88.50906       46.02139
H         91.59865       88.40812       45.86148
H         92.74929       89.47891       45.96559
O         95.76694       84.87102       47.66129
H         96.08223       84.66291       48.56787
H         96.50868       85.40481       47.30036
O         95.39887       86.05960       44.89064
H         95.63234       85.57706       44.06049
H         96.27040       86.33216       45.26672

Ca 1.70



