%chk=loop1.cluster91.chk
%nprocshared=48
%mem=10GB
%nosave
#b3lyp/svp scf=(tight,noincore) Test 
#IOP(5/87=12) Density=Current Pop=(MK,readradii) iop(6/33=2) iop(6/42=6)

loop1.cluster91 

   0  1 
C         93.41804       87.81645       40.20900
C         94.75157       87.54829       39.59872
O         94.86390       87.68930       38.40451
H         92.66704       87.12686       39.77007
H         93.44164       87.69493       41.30931
H         93.13544       88.86325       39.96508
N         95.81730       87.18121       40.36149
C         97.17697       87.01734       39.83228
C         97.47297       85.61917       39.28602
O         98.59577       85.38891       38.85767
C         98.23589       87.41345       40.89436
C         98.19180       86.63679       42.18019
O         99.12423       85.90978       42.48159
O         97.18582       86.82651       43.05744
H         95.65761       87.08944       41.36816
H         97.34899       87.74680       39.02152
H         98.13249       88.48774       41.15065
H         99.24347       87.28051       40.44060
N         96.53986       84.62613       39.30260
C         96.89207       83.22747       39.05604
C         96.68207       82.84804       37.59272
O         95.56717       82.99854       37.12448
C         95.98316       82.31581       39.90903
C         95.96325       82.61943       41.42464
C         97.32068       82.39404       42.10101
C         97.27349       82.47378       43.64259
N         96.96984       83.81205       44.14753
H         95.60197       84.83600       39.66855
H         97.92670       83.04336       39.40112
H         96.28983       81.25858       39.75083
H         94.93837       82.42024       39.54543
H         95.22775       81.91941       41.87301
H         95.60588       83.65379       41.61420
H         98.07007       83.11900       41.71516
H         97.66131       81.36961       41.84223
H         98.28333       82.18692       44.00716
H         96.54052       81.74611       44.05472
H         97.55070       84.50447       43.64303
H         95.95678       84.04373       44.03822
H         97.22765       83.86711       45.16023
N         97.65775       82.32531       36.78822
C         99.04132       82.11937       37.18951
C         99.94466       82.17071       35.95610
O        100.59205       81.18212       35.63912
C         99.17403       80.78497       37.96782
C        100.56260       80.53439       38.51050
O        100.83355       79.36851       39.12551
O        101.44372       81.37414       38.40164
H         97.39895       82.08893       35.81492
H         99.38355       82.95393       37.83013
H         98.89322       79.94796       37.29120
H         98.47840       80.77035       38.83079
N        100.07304       83.30523       35.20934
C         99.30116       84.51958       35.45754
C         99.65201       85.63666       34.48974
O        100.68374       85.55356       33.83722
H        100.73028       83.27631       34.41491
H         99.42732       84.88159       36.49652
H         98.24800       84.25401       35.29504
N         98.82833       86.70415       34.26562
C         97.56351       86.95499       34.95539
C         97.50058       88.42776       35.35467
O         97.92378       89.28525       34.59422
C         96.36373       86.67126       34.02862
C         96.36222       85.27678       33.46370
O         96.11902       84.21768       34.25475
O         96.54960       85.10420       32.27077
H         99.09769       87.35753       33.51487
H         97.44543       86.30270       35.84842
H         96.38458       87.39221       33.18723
H         95.41030       86.82220       34.58813
N         96.89723       88.77935       36.51388
C         96.77395       90.15814       36.98101
C         95.48105       90.84597       36.56895
O         95.45004       92.07171       36.59728
H         96.53673       88.02569       37.07847
H         97.62220       90.74823       36.57383
H         96.89511       90.20051       38.08471
N         94.36648       90.15064       36.19533
C         93.17278       90.78595       35.61669
C         91.97134       89.86032       35.63529
O         92.12254       88.67780       35.37454
C         93.41474       91.20037       34.13911
C         94.10215       90.09132       33.31211
O         94.12192       92.41003       34.05016
H         94.37657       89.12280       36.29504
H         92.87048       91.67635       36.21672
H         92.42115       91.39908       33.67745
H         95.07639       92.23039       34.23244
H         93.55535       89.12837       33.37389
H         94.15316       90.39190       32.24685
H         95.13806       89.91998       33.67813
N         90.71257       90.35225       35.81158
C         89.53241       89.49454       35.86994
C         88.72686       89.57879       34.57876
O         88.17671       90.62336       34.25163
C         88.72343       89.73258       37.18264
C         87.43363       88.87553       37.27628
C         88.35709       91.20659       37.43376
C         87.69390       87.37112       37.27138
H         90.59525       91.37602       35.87590
H         89.87146       88.44043       35.94553
H         89.39279       89.44241       38.02307
H         86.72876       89.13253       36.45334
H         86.92850       89.10925       38.23794
H         87.88706       91.29890       38.43636
H         89.25496       91.85344       37.47373
H         87.65406       91.59296       36.66915
H         86.74018       86.83010       37.44744
H         88.10424       87.03984       36.30336
H         88.41036       87.10226       38.07391
N         88.65366       88.46894       33.78623
C         87.92366       88.36154       32.52387
C         86.88883       87.22564       32.53699
O         86.08497       87.14868       31.61948
C         88.93286       88.14001       31.36483
C         89.96079       87.03066       31.66126
O         89.63607       89.32795       31.12157
H         89.18082       87.64076       34.09532
H         87.34878       89.29584       32.33113
H         88.38099       87.84643       30.44106
H         89.01837       89.91994       30.61676
H         90.62966       87.32700       32.49954
H         89.46373       86.07208       31.91948
H         90.61848       86.87194       30.78345
N         86.85497       86.31452       33.55139
C         85.88283       85.24181       33.70540
C         85.96986       84.16464       32.62707
O         86.56724       84.35489       31.57686
C         84.42908       85.75546       33.91068
C         84.39063       86.95044       34.88505
O         83.61330       84.69394       34.36752
H         87.54951       86.37445       34.29654
H         86.17419       84.74318       34.65875
H         84.01863       86.10733       32.94174
H         83.08357       84.96748       35.16214
H         84.97312       87.80389       34.48172
H         83.34307       87.29575       35.01136
H         84.80235       86.66214       35.87450
N         85.43161       82.95121       32.91367
C         85.35708       81.80001       32.03805
C         86.41543       80.70577       32.22238
O         86.68534       80.06979       31.21119
C         83.92994       81.18326       32.16375
C         83.01079       81.52251       30.99317
C         82.87642       83.02643       30.73139
C         82.05348       83.25494       29.46308
N         81.93131       84.68101       29.16425
H         84.98835       82.86235       33.82027
H         85.53660       82.12149       30.98654
H         83.44525       81.49464       33.11628
H         83.97804       80.07313       32.21289
H         82.00551       81.09005       31.19765
H         83.42617       81.02518       30.09010
H         83.87470       83.47359       30.54657
H         82.42304       83.53419       31.60879
H         81.04143       82.80350       29.56735
H         82.57680       82.74785       28.62069
H         81.66748       84.79460       28.15931
H         81.18788       85.10297       29.76559
H         82.83743       85.17864       29.32640
N         87.00714       80.29165       33.39162
C         86.95856       80.85459       34.73934
C         85.57029       80.99260       35.32071
O         85.25100       82.02683       35.89530
C         87.84037       82.10832       34.84240
C         89.30059       81.79145       34.51464
C         90.08288       83.05829       34.54833
O         90.99415       83.25788       35.51278
O         89.86309       83.93136       33.72486
H         87.61773       79.46343       33.30356
H         87.44586       80.11164       35.40764
H         87.80361       82.51447       35.87779
H         87.49708       82.88813       34.15876
H         89.41431       81.33266       33.50781
H         89.68941       81.07863       35.27429
N         84.70939       79.94309       35.27134
C         83.37828       79.99952       35.83889
H         82.63302       79.75799       35.05342
H         83.30631       79.25452       36.65646
H         83.12976       81.00040       36.25296
H         85.01190       79.06650       34.82195
Ca        93.66909       83.57774       35.26301
O         92.78680       85.35811       33.40513
H         91.79986       85.36302       33.39160
H         93.05368       85.76503       32.54626
O         92.99698       82.28815       32.90156
H         93.57684       81.98800       32.15913
H         92.32041       82.87184       32.47673
O         93.85532       80.96102       35.54160
H         94.41861       80.42727       36.15319
H         93.34701       80.30878       35.00009
O         93.12115       85.87038       36.40572
H         92.96905       86.67735       35.87371
H         93.64533       86.17372       37.17819
O         92.86713       83.59003       37.99089
H         93.01935       84.15369       38.78976
H         92.12531       82.98397       38.23560

Ca 1.70



