%chk=loop3.cluster148.chk
%nprocshared=48
%mem=10GB
%nosave
#b3lyp/svp scf=(tight,noincore) Test 
#IOP(5/87=12) Density=Current Pop=(MK,readradii) iop(6/33=2) iop(6/42=6)

loop3.cluster148 

   0  1 

C         53.18323       54.73239       46.75791
C         53.38294       53.86224       47.95232
O         52.39197       53.45374       48.53861
H         52.51391       55.58363       47.02065
H         54.15220       55.15370       46.42196
H         52.72262       54.12788       45.95478
N         54.65446       53.52223       48.34759
C         55.02107       52.82588       49.58613
C         54.86611       53.71097       50.83326
O         55.81624       53.81740       51.60037
C         54.37332       51.44296       49.72805
C         54.98921       50.44849       48.78009
O         54.70136       50.45731       47.59451
O         55.88251       49.55134       49.24426
H         55.42665       53.77162       47.71365
H         56.12342       52.63493       49.54331
H         53.27386       51.46634       49.61459
H         54.60030       51.08806       50.75388
N         53.73344       54.43983       51.04933
C         53.59672       55.45960       52.07825
C         53.52739       54.86558       53.45684
O         53.81132       55.56533       54.41840
C         52.39493       56.40128       51.80067
C         51.03097       55.69975       51.70538
C         49.85882       56.68377       51.53525
C         48.52974       55.92506       51.53608
N         48.19196       55.51962       52.88875
H         52.96671       54.33663       50.41558
H         54.50703       56.09613       52.03146
H         52.56993       56.93263       50.84210
H         52.36468       57.14417       52.62378
H         50.90250       55.10253       52.61237
H         50.99660       55.01347       50.83398
H         49.96458       57.21586       50.56885
H         49.82898       57.44780       52.34621
H         48.57971       55.02869       50.87225
H         47.70702       56.56614       51.15571
H         48.85297       54.80583       53.22276
H         48.15311       56.32981       53.55074
H         47.26803       55.08034       52.83712
N         53.16037       53.56953       53.62860
C         53.34152       52.85804       54.88542
C         54.15810       51.61597       54.60642
O         54.03931       51.02494       53.54077
C         52.06592       52.57407       55.68174
C         50.85193       52.60581       54.84369
O         50.25560       51.58658       54.55232
O         50.38310       53.79293       54.45921
H         52.82380       53.03220       52.81304
H         53.96422       53.47765       55.56586
H         51.93589       53.36726       56.46000
H         52.16620       51.60839       56.21015
N         55.16930       51.31639       55.46228
C         56.34930       50.56905       55.07102
C         56.21175       49.10590       54.79776
O         57.20004       48.50836       54.38784
H         55.20135       51.81000       56.36502
H         57.08866       50.65354       55.89368
H         56.76961       51.05710       54.16738
N         55.05509       48.43488       55.03325
C         54.97507       46.99775       54.83987
C         54.67036       46.66635       53.39738
O         54.86445       45.52415       52.99582
C         54.01454       46.37105       55.88879
C         52.60449       46.06263       55.45116
N         52.12306       44.80050       55.57066
O         51.88918       46.94493       55.01398
H         54.24138       48.93988       55.40648
H         55.97661       46.57216       55.07470
H         53.96822       47.03743       56.78104
H         54.45831       45.42137       56.23309
H         52.72269       44.04340       55.93137
H         51.14765       44.58127       55.32363
N         54.13880       47.62781       52.57036
C         53.63138       47.38241       51.23264
C         52.29108       46.65896       51.22637
O         51.46953       46.92534       50.35571
H         54.06848       48.59343       52.90645
H         54.36945       46.80642       50.64165
H         53.49769       48.37194       50.73559
N         52.04548       45.66999       52.14489
C         50.93846       44.74201       52.18383
C         49.63427       45.43883       52.35519
O         48.61824       44.79879       52.14786
C         50.99626       43.81120       50.97101
C         52.41360       43.36634       50.70533
C         52.96646       42.24792       51.34471
C         53.20412       44.11707       49.82133
C         54.28972       41.87640       51.07527
C         54.52988       43.77970       49.59244
C         55.08023       42.65127       50.21186
O         56.36505       42.31039       49.98874
H         52.69237       45.51882       52.88616
H         51.06444       44.10086       53.08213
H         50.63623       44.37603       50.09044
H         50.33516       42.93237       51.13504
H         52.37488       41.66411       52.03951
H         52.79578       44.98396       49.32369
H         54.70157       40.99373       51.54601
H         55.12036       44.39934       48.92886
H         56.94283       42.85221       49.43100
N         49.63723       46.76172       52.74497
C         48.57207       47.73944       52.85900
C         47.72621       47.55650       54.15658
O         46.91415       48.66450       54.45988
C         47.96171       48.01431       51.44580
C         47.52241       49.48161       51.35286
C         46.84901       47.04853       51.00331
C         47.34260       49.96998       49.91772
H         50.54635       47.17569       52.94647
H         49.13399       48.67159       53.09711
H         48.81935       47.92275       50.73079
H         48.33673       50.11537       51.76608
H         46.62081       49.64470       51.96691
H         47.15766       46.00030       51.01792
H         45.97269       47.15992       51.66405
H         46.53765       47.23262       49.95602
H         47.94251       49.37000       49.19903
H         46.27371       49.93457       49.63800
H         47.72356       51.01411       49.84739
N         46.89296       46.37596       54.01052
C         46.09866       45.96991       55.16795
C         44.67133       45.83178       54.69586
O         43.78535       46.35482       55.35389
C         46.62691       44.66340       55.83187
O         46.79501       43.61868       54.90212
H         47.50055       45.58664       53.79321
H         46.13750       46.73477       55.97060
H         45.93071       44.36639       56.64947
H         47.61014       44.86367       56.31274
H         46.25466       42.84526       55.20698
N         44.38081       45.20154       53.51229
C         43.02645       44.99447       53.00480
C         42.21839       46.27661       52.99536
O         41.10414       46.32511       53.50604
C         42.39832       43.86603       53.80008
H         45.15437       44.84746       52.92947
H         43.10217       44.65842       51.94862
H         43.06387       42.98056       53.70039
H         42.33376       44.14309       54.87452
H         41.40045       43.62074       53.39010
N         42.78567       47.38364       52.45589
C         42.25782       48.71692       52.65845
C         42.76599       49.68006       51.61610
O         43.76167       49.41163       50.95782
C         42.79986       49.26657       53.99176
H         43.73648       47.28784       52.08422
H         41.14320       48.71037       52.67152
H         42.46589       48.65742       54.85162
H         43.91580       49.26777       53.96419
H         42.46706       50.31344       54.16754
N         42.17294       50.90458       51.56369
C         42.69447       52.14560       50.99949
C         43.13309       52.21922       49.54382
O         43.44935       53.31961       49.11020
C         43.70426       52.77992       51.98627
C         45.07188       52.09433       52.12292
C         45.87362       52.68206       53.25748
O         45.65193       53.81672       53.63789
O         46.57204       51.85879       54.05409
H         41.34663       51.02491       52.16762
H         41.82879       52.84000       51.03760
H         43.20750       52.81472       52.98357
H         43.90315       53.82393       51.66779
H         45.62543       52.21825       51.17123
H         44.95392       51.02004       52.34712
N         43.18914       51.13345       48.72515
C         43.69522       51.20684       47.37206
H         44.72019       50.77945       47.35556
H         43.04951       50.59395       46.71236
H         43.73041       52.24571       46.97934
H         42.90957       50.21219       49.06017
Ca        47.76410       50.57754       55.44585
O         45.29325       51.26200       56.70818
H         44.86758       50.54887       57.24614
H         44.57057       51.91411       56.53156
O         49.80345       50.95569       57.79673
H         50.58490       50.34857       57.77476
H         50.08019       51.68753       58.40137
O         49.86937       48.90040       55.82567
H         50.67606       49.02617       55.26770
H         49.93389       47.98888       56.20255
O         48.06814       53.36868       56.70165
H         48.88771       53.63228       56.22776
H         47.39274       53.99142       56.33951
O         47.19057       49.03326       57.96291
H         47.30107       48.84993       58.92907
H         46.40169       48.49819       57.69601

Ca 1.70



