%chk=loop1.cluster47.chk
%nprocshared=48
%mem=10GB
%nosave
#b3lyp/svp scf=(tight,noincore) Test 
#IOP(5/87=12) Density=Current Pop=(MK,readradii) iop(6/33=2) iop(6/42=6)

loop1.cluster47 

   0  1 
C         38.07912        0.26396       37.72296
C         37.28012       -0.96895       38.01573
O         37.09193       -1.77294       37.11821
H         39.07234       -0.03686       37.32816
H         37.55483        0.87977       36.96290
H         38.23324        0.87461       38.63685
N         36.78379       -1.19069       39.26502
C         36.03093       -2.39130       39.61975
C         34.61709       -2.04322       40.02909
O         34.18149       -2.41461       41.11166
C         36.79600       -3.22134       40.68113
C         37.16802       -2.51079       41.96454
O         37.88022       -3.17115       42.89607
O         36.84512       -1.35199       42.17135
H         36.94899       -0.47595       39.98602
H         35.91235       -3.05668       38.73586
H         37.73636       -3.57853       40.21284
H         36.18898       -4.11656       40.94339
N         33.82246       -1.34759       39.16863
C         32.40665       -1.12175       39.41619
C         31.64283       -1.40610       38.13010
O         31.80440       -0.62455       37.20155
C         32.16659        0.35050       39.82794
C         32.79257        0.69660       41.18716
C         32.48076        2.14869       41.57675
C         32.98679        2.46733       42.98997
N         32.56416        3.80479       43.40696
H         34.23072       -0.99373       38.28893
H         32.05599       -1.76784       40.23925
H         31.06991        0.52338       39.90351
H         32.57554        1.03451       39.04985
H         33.89405        0.54701       41.16215
H         32.35477        0.01892       41.95216
H         31.38039        2.30013       41.55224
H         32.95175        2.84610       40.84712
H         34.09688        2.39696       43.01043
H         32.57482        1.72588       43.71079
H         31.52372        3.82545       43.51926
H         33.00325        4.03289       44.32797
H         32.85470        4.52055       42.70239
N         30.80342       -2.47035       37.92768
C         30.53494       -3.62310       38.79526
C         29.78885       -3.31109       40.08159
O         29.73211       -2.15490       40.47187
C         31.80168       -4.48262       39.02522
C         32.32728       -4.93500       37.69923
O         31.60954       -5.58516       36.95572
O         33.55802       -4.58919       37.28838
H         30.34342       -2.50611       37.00343
H         29.81995       -4.22841       38.20198
H         31.56487       -5.38433       39.62415
H         32.58200       -3.92953       39.58046
N         29.10849       -4.27482       40.78562
C         28.89837       -5.66048       40.35547
C         29.28193       -6.65616       41.43915
O         28.96827       -6.38854       42.58933
H         28.61735       -3.97749       41.64282
H         29.35788       -5.87466       39.39031
H         27.80720       -5.78068       40.20100
N         29.93390       -7.84001       41.20408
C         30.33696       -8.36160       39.89875
C         31.82117       -8.19721       39.69346
O         32.22239       -8.08451       38.55041
C         29.84518       -9.80629       39.65234
C         30.16334      -10.79368       40.74643
O         31.26546      -10.65648       41.50710
O         29.40051      -11.72289       40.95878
H         30.17432       -8.40766       42.03007
H         29.88165       -7.79161       39.07186
H         30.24637      -10.19471       38.68858
H         28.73960       -9.78164       39.53616
N         32.69172       -8.09290       40.74275
C         34.06282       -7.63941       40.58746
C         34.80121       -8.33239       39.47195
O         34.97759       -9.54219       39.50417
H         32.35959       -8.25128       41.70190
H         34.60660       -7.74779       41.54912
H         34.01947       -6.55006       40.36686
N         35.24328       -7.58811       38.42327
C         35.88893       -8.14223       37.24594
C         36.79882       -7.06382       36.68836
O         36.32114       -6.01015       36.29327
C         34.81570       -8.62431       36.22423
C         35.41488       -9.11593       34.90655
O         33.93377       -7.59580       35.90359
H         35.07219       -6.56903       38.44521
H         36.52010       -9.00954       37.53899
H         34.22049       -9.46034       36.65894
H         33.39674       -7.39970       36.70432
H         35.91576      -10.09338       35.04118
H         34.59990       -9.22838       34.15668
H         36.13440       -8.37720       34.49338
N         38.14204       -7.23797       36.69979
C         39.06736       -6.19219       36.29262
C         40.18393       -6.83668       35.52410
O         41.34818       -6.75523       35.90036
C         39.41729       -5.29298       37.50892
C         40.36316       -4.14184       37.08422
C         39.95076       -6.07923       38.71971
C         40.60117       -3.11666       38.18419
H         38.52938       -8.11152       37.08926
H         38.57534       -5.51425       35.55556
H         38.44652       -4.84545       37.82375
H         39.91298       -3.61444       36.21550
H         41.35306       -4.53205       36.77069
H         40.99000       -6.42479       38.55357
H         39.91506       -5.43542       39.62354
H         39.30879       -6.95473       38.94877
H         39.63390       -2.70865       38.54058
H         41.15321       -3.57310       39.03147
H         41.21768       -2.28828       37.77655
N         39.86872       -7.52932       34.40229
C         40.84293       -8.16390       33.54307
C         40.72520       -7.64172       32.11726
O         41.38272       -8.17396       31.24117
C         40.66549       -9.70071       33.64061
C         39.33827      -10.21474       33.06855
O         40.74733      -10.09334       34.98775
H         38.86837       -7.60565       34.14545
H         41.88020       -7.94728       33.88427
H         41.47699      -10.20293       33.06779
H         41.65782       -9.85783       35.30655
H         39.28288      -10.02410       31.97750
H         39.27624      -11.31218       33.22656
H         38.46282       -9.74999       33.56607
N         39.90574       -6.57573       31.82537
C         39.67997       -6.06169       30.47808
C         38.87831       -7.08134       29.67682
O         38.64257       -8.18082       30.16064
C         41.00331       -5.61259       29.78842
C         41.90821       -4.79709       30.73712
O         40.73491       -4.89197       28.60608
H         39.40367       -6.09152       32.57911
H         39.03695       -5.15820       30.58948
H         41.59005       -6.50573       29.49557
H         40.75799       -3.91680       28.79912
H         42.84373       -4.51844       30.20888
H         41.39411       -3.87623       31.08454
H         42.19675       -5.39580       31.62585
N         38.35706       -6.75018       28.46498
C         37.63325       -7.69668       27.63323
C         36.10871       -7.54349       27.52622
O         35.53839       -8.47737       26.97827
C         38.25689       -7.67882       26.22416
C         39.69471       -8.20620       26.25098
C         40.33464       -8.11678       24.86644
C         41.76274       -8.67123       24.89721
N         42.43663       -8.43615       23.62247
H         38.56617       -5.83022       28.08122
H         37.75322       -8.72164       28.05074
H         38.23281       -6.63328       25.83594
H         37.67207       -8.31449       25.52548
H         39.68052       -9.26441       26.59267
H         40.30678       -7.60871       26.96197
H         40.35972       -7.04765       24.56277
H         39.73297       -8.68671       24.12356
H         41.73427       -9.76323       25.11586
H         42.34003       -8.16785       25.70384
H         42.47693       -7.40802       23.43173
H         43.41345       -8.80361       23.67987
H         41.92895       -8.91978       22.84698
N         35.31541       -6.50706       27.95558
C         35.65814       -5.22406       28.55370
C         36.56590       -4.38265       27.69233
O         37.53191       -3.80699       28.17591
C         35.89933       -5.29069       30.07550
C         34.62896       -5.82756       30.77231
C         34.52635       -5.33691       32.17870
O         34.43312       -4.13828       32.38965
O         34.44185       -6.18538       33.20882
H         34.30615       -6.62259       27.76727
H         34.73135       -4.61035       28.49883
H         36.07788       -4.24330       30.40394
H         36.76621       -5.88977       30.39498
H         34.59180       -6.93668       30.69853
H         33.71524       -5.42666       30.28194
N         36.22272       -4.18555       26.39077
C         36.97008       -3.31608       25.51473
H         37.99559       -3.71058       25.36135
H         36.45354       -3.25698       24.53263
H         37.01317       -2.29505       25.94891
H         35.37554       -4.64280       26.02115
Ca        34.02463       -5.17032       35.16896
O         35.01181       -2.63773       34.90119
H         35.58622       -2.91600       35.65579
H         34.37456       -1.99306       35.29661
O         31.92966       -3.09444       34.58476
H         31.03951       -3.50557       34.71019
H         31.73578       -2.21295       34.18024
O         31.41522       -6.18068       33.91605
H         30.61222       -5.67108       34.18748
H         31.10606       -7.11966       33.88691

Ca 1.70



