%chk=loop4.cluster99.chk
%nprocshared=48
%mem=10GB
%nosave
#b3lyp/svp scf=(tight,noincore) Test 
#IOP(5/87=12) Density=Current Pop=(MK,readradii) iop(6/33=2) iop(6/42=6)

loop4.cluster99 

   -3  1 
C         62.26110       59.04109       81.43702
C         63.13779       58.06203       82.17191
O         64.23872       57.78835       81.71585
H         61.31163       59.22479       81.98370
H         62.79365       60.01373       81.35505
H         62.01876       58.68214       80.41779
N         62.73070       57.54274       83.36983
C         63.57371       56.73242       84.25682
C         64.81316       57.50648       84.67495
O         65.80505       56.91067       85.06370
C         63.96510       55.36360       83.66985
C         62.82865       54.64330       83.03206
O         63.07471       53.70620       82.29747
O         61.56866       55.10960       83.14000
H         61.79352       57.80041       83.71655
H         62.98222       56.52874       85.17652
H         64.41615       54.71675       84.45937
H         64.72390       55.52079       82.87917
N         64.80000       58.86690       84.60590
C         65.89537       59.71077       85.02767
C         65.32546       60.67663       86.05955
O         64.36851       61.36673       85.74672
C         66.45195       60.51131       83.81735
C         67.18451       59.63196       82.76823
C         67.38102       61.65628       84.27988
C         68.41280       58.87072       83.28773
H         63.95635       59.34755       84.27248
H         66.72578       59.11103       85.43551
H         65.59943       60.99875       83.29246
H         67.52146       60.31718       81.96086
H         66.49374       58.89866       82.30383
H         66.81276       62.40683       84.86826
H         68.20810       61.28513       84.91677
H         67.80176       62.19172       83.40434
H         69.00819       58.50878       82.42307
H         69.07785       59.51253       83.89809
H         68.10805       57.98989       83.88906
N         65.88187       60.84507       87.29060
C         67.00924       60.07079       87.78715
C         66.56533       58.64377       88.10002
O         67.39871       57.75120       88.11706
C         67.60927       60.75034       89.03074
C         68.19916       62.10404       88.69721
O         69.49673       62.35255       88.95639
O         67.50926       62.98089       88.20025
H         65.47044       61.57115       87.89920
H         67.82393       60.05567       87.02737
H         68.41826       60.11582       89.45105
H         66.81630       60.86974       89.79915
N         65.25222       58.37612       88.38691
C         64.71940       57.04219       88.62060
C         65.49291       56.26656       89.65581
O         65.68253       56.75328       90.76233
H         64.58063       59.15409       88.43214
H         64.71318       56.48215       87.66271
H         63.66299       57.14217       88.95294
N         65.96514       55.02303       89.34221
C         66.78452       54.21937       90.24126
C         68.15945       53.90483       89.63626
O         69.01780       53.43295       90.36874
C         66.00442       52.94892       90.66517
C         65.58411       52.05361       89.52874
O         66.41818       51.44418       88.88503
O         64.27630       51.87329       89.25904
H         65.71886       54.62696       88.42384
H         66.98340       54.79393       91.17332
H         65.08111       53.28337       91.18568
H         66.60020       52.34752       91.38436
N         68.43769       54.12533       88.30953
C         69.73798       53.85913       87.70121
C         69.71935       52.64188       86.78283
O         70.74413       52.33004       86.19396
H         67.70013       54.46132       87.67928
H         70.51222       53.66539       88.47338
H         70.04642       54.76803       87.14042
N         68.59322       51.88122       86.65601
C         68.50639       50.59597       85.97069
C         68.86954       50.70934       84.49541
O         69.75514       50.01092       84.01881
C         69.30712       49.52631       86.75296
C         68.79346       48.10815       86.44311
C         69.55354       47.01775       87.15698
N         69.11350       45.74020       87.08751
O         70.56021       47.27749       87.80060
H         67.73792       52.19686       87.11830
H         67.43644       50.29577       86.03249
H         69.13716       49.67763       87.84406
H         70.39646       49.63951       86.56115
H         68.82276       47.90278       85.35367
H         67.73397       48.05864       86.78229
H         68.25383       45.51194       86.56625
H         69.62190       44.98474       87.57017
N         68.22436       51.62540       83.72181
C         68.56286       51.87476       82.31739
C         68.10344       50.71774       81.43573
O         67.25524       49.94382       81.86432
C         67.91019       53.22280       81.87029
C         68.41848       54.39327       82.73781
C         68.16157       53.56980       80.39484
H         67.50596       52.20717       84.17697
H         69.67074       51.97422       82.24037
H         66.80917       53.14369       82.01258
H         68.20696       54.24417       83.81580
H         69.51429       54.52604       82.61520
H         67.90461       55.33258       82.44339
H         67.67400       52.83398       79.72394
H         67.71317       54.55783       80.15732
H         69.25049       53.61104       80.17929
N         68.64937       50.52047       80.19384
C         68.22873       49.43624       79.31230
C         67.91695       49.91028       77.90459
O         68.73688       50.57530       77.28110
C         69.29340       48.32898       79.26248
C         68.87526       47.19342       78.34324
N         67.67153       46.58185       78.48452
O         69.62481       46.84351       77.44447
H         69.42647       51.12755       79.88640
H         67.31813       48.96021       79.72648
H         69.42434       47.93261       80.29118
H         70.26837       48.74303       78.92033
H         67.00669       46.86941       79.21596
H         67.38790       45.83550       77.83324
N         66.77193       49.48351       77.30349
C         66.47854       49.67842       75.88824
C         64.98063       49.46873       75.62989
O         64.59207       49.15607       74.51474
C         67.36302       48.67589       75.09163
C         67.39689       48.91362       73.60178
C         67.87118       50.13764       73.10420
C         66.99842       47.91113       72.69904
C         67.93026       50.36640       71.72867
C         67.05980       48.14298       71.31923
C         67.52042       49.37630       70.83166
O         67.57136       49.62012       69.50630
H         66.16044       48.85492       77.84681
H         66.71491       50.72777       75.60689
H         67.03101       47.63988       75.32947
H         68.41574       48.76620       75.43186
H         68.19932       50.91299       73.78407
H         66.64624       46.95271       73.06099
H         68.29541       51.31612       71.35975
H         66.75219       47.36584       70.63018
H         67.26368       48.97336       68.85585
N         64.08167       49.64534       76.64967
C         62.65152       49.41389       76.52185
C         62.06002       50.35078       75.46673
O         61.47064       49.83453       74.52656
C         61.99994       49.47095       77.93190
C         60.49719       49.19805       77.93326
C         59.89044       49.32333       79.30800
O         60.65501       49.25013       80.41602
O         58.68152       49.43403       79.42256
H         64.41972       49.95900       77.56683
H         62.49449       48.36394       76.18333
H         62.15261       50.44421       78.40516
H         62.51019       48.72399       78.58161
H         60.28168       48.18018       77.54714
H         60.02155       49.95097       77.27276
N         62.22209       51.71365       75.46081
C         62.85259       52.50647       76.51635
C         64.19367       53.06660       76.10060
O         64.62150       52.88694       74.96869
C         61.91890       53.67715       76.89446
C         60.52959       53.22818       77.35065
C         59.66293       54.43085       77.59182
O         59.96101       55.29632       78.57756
O         58.69017       54.63512       76.88443
H         61.86015       52.22968       74.64301
H         63.07965       51.91131       77.39753
H         61.79611       54.31965       75.99310
H         62.37400       54.29686       77.69595
H         60.59384       52.61867       78.27297
H         60.06614       52.60520       76.55817
N         64.92466       53.76150       77.01880
C         66.19889       54.36381       76.71138
H         66.92777       53.58834       76.39855
H         66.07168       55.12183       75.91071
H         66.58711       54.87460       77.61972
H         64.55897       53.86996       77.97648
Ca        60.00739       54.66816       81.58529
O         61.69469       52.27892       80.47817
H         61.86403       51.31564       80.38042
H         61.39042       52.34801       81.41343
O         58.45527       52.87818       80.07400
H         57.60696       52.95008       79.57106
H         58.72689       51.93278       79.98127
O         59.45962       52.41978       83.12436
H         59.70528       52.25310       84.06763
H         58.47014       52.43290       83.11235
O         62.31898       55.86019       80.15824
H         62.08247       56.50363       79.44520
H         63.30683       55.81636       80.13578

Ca 1.70



