%chk=loop3.cluster130.chk
%nprocshared=48
%mem=10GB
%nosave
#b3lyp/svp scf=(tight,noincore) Test 
#IOP(5/87=12) Density=Current Pop=(MK,readradii) iop(6/33=2) iop(6/42=6)

loop3.cluster130 

   0  1 
C         95.04180       55.16073       28.71501
C         95.68830       53.83003       28.51426
O         95.14549       52.82636       28.94686
H         94.08540       55.04479       29.26646
H         95.72417       55.81337       29.29793
H         94.84247       55.61996       27.72521
N         96.88003       53.75940       27.86304
C         97.56366       52.49598       27.63429
C         98.86392       52.47676       28.43125
O         99.30932       53.51603       28.88647
C         97.76037       52.35077       26.13063
C         98.39767       51.07686       25.73452
O         97.83942       50.00463       25.90850
O         99.57333       51.17397       25.10252
H         97.32024       54.62743       27.52272
H         96.94179       51.64970       27.99268
H         98.40890       53.18340       25.77352
H         96.78905       52.42814       25.59389
N         99.42509       51.27888       28.77344
C        100.51737       51.18992       29.75214
C        101.85448       51.70919       29.24176
O        102.71671       52.01012       30.05701
C        100.62571       49.74710       30.27665
C        101.21004       48.78277       29.23232
C        100.84515       47.33296       29.56482
C        101.43383       46.31956       28.57261
N        102.87583       46.14817       28.75092
H         98.96365       50.41727       28.45481
H        100.20374       51.81688       30.61731
H         99.59168       49.44087       30.55293
H        101.24568       49.69569       31.19788
H        102.30787       48.94555       29.17308
H        100.77335       48.99966       28.24182
H         99.73637       47.26275       29.49951
H        101.15164       47.06332       30.59701
H        101.20608       46.61831       27.53199
H        100.93996       45.34006       28.74471
H        103.07578       45.86906       29.73914
H        103.20558       45.38319       28.11897
H        103.39329       47.02436       28.51632
N        102.09151       51.84829       27.90543
C        103.29365       52.48176       27.36180
C        102.94245       53.82271       26.72191
O        103.84204       54.51609       26.26620
C        104.05476       51.53395       26.38789
C        103.30787       51.00556       25.18989
O        102.02791       51.31630       24.98324
O        103.85599       50.22094       24.43410
H        101.35763       51.55097       27.24903
H        104.00808       52.71733       28.18148
H        104.37527       50.64231       26.96630
H        104.96458       52.05212       26.01643
N        101.64734       54.26675       26.68045
C        101.23931       55.52437       26.08355
C        101.34951       55.53514       24.57080
O        101.00103       56.54184       23.97023
H        100.90283       53.70380       27.09438
H        101.81486       56.35907       26.53814
H        100.16474       55.68449       26.32620
N        101.77178       54.43654       23.88006
C        101.91705       54.38630       22.43450
C        100.78120       53.58537       21.82235
O        100.35474       52.59364       22.39943
C        103.27782       53.74417       22.09822
C        103.54006       53.70494       20.61430
N        103.66094       54.84780       19.90368
O        103.65769       52.63120       20.04933
H        101.99405       53.58119       24.39243
H        101.89169       55.41331       22.01048
H        103.29317       52.70800       22.50759
H        104.09864       54.31421       22.58334
H        103.60041       55.76414       20.36892
H        103.83061       54.80907       18.88786
N        100.21132       53.99810       20.65470
C         99.05766       53.35077       20.05373
C         99.31835       52.01632       19.36969
O         98.36172       51.42876       18.89058
H        100.57064       54.85639       20.20862
H         98.65456       54.02132       19.26497
H         98.26538       53.23458       20.82581
N        100.57519       51.49879       19.22398
C        100.79557       50.21544       18.55588
C        100.35662       49.05961       19.42619
O        100.54883       49.09035       20.63074
C        102.25231       49.97889       18.10085
C        102.53328       50.52702       16.71935
C        102.62088       49.63090       15.63544
C        102.71386       51.89973       16.48998
C        102.89595       50.09384       14.35064
C        103.00613       52.36071       15.19724
C        103.10126       51.45542       14.12604
O        103.39411       51.88264       12.88101
H        101.38110       52.02238       19.57287
H        100.18790       50.17100       17.62469
H        102.38194       48.87691       18.01292
H        103.00885       50.30358       18.83709
H        102.46871       48.56864       15.78594
H        102.64925       52.60535       17.30787
H        102.95773       49.38937       13.52988
H        103.16405       53.41781       15.02739
H        103.57240       52.81359       12.68916
N         99.78141       47.97457       18.82932
C         99.28952       46.79347       19.52380
C        100.39569       45.84589       19.98675
O        101.56172       46.20096       20.08389
C         98.17158       47.17073       20.57269
C         97.80861       46.05273       21.59129
C         96.93328       47.66052       19.80345
C         96.65729       46.40132       22.53282
H         99.65502       47.99663       17.80688
H         98.79954       46.17616       18.73711
H         98.53383       48.00545       21.20124
H         98.71720       45.87292       22.20989
H         97.49304       45.11459       21.10472
H         96.18433       48.09788       20.49341
H         97.20926       48.45252       19.07653
H         96.46892       46.81435       19.25199
H         96.62388       45.66238       23.36174
H         96.76559       47.41542       22.95506
H         95.69360       46.34544       21.98535
N        100.03376       44.55711       20.20897
C        100.85660       43.45681       20.67882
C        100.65507       42.25504       19.74238
O        101.62851       41.64812       19.32181
C        100.41636       43.15116       22.11798
O         99.05979       42.79766       22.16399
H         99.05215       44.34800       20.04839
H        101.93443       43.73376       20.72931
H        100.58192       44.08485       22.70964
H        101.03331       42.33676       22.55062
H         98.76718       42.92028       23.10355
N         99.39093       41.91723       19.32462
C         99.06675       40.93771       18.29896
C         99.42720       39.51231       18.68349
O        100.20057       38.88360       17.97409
C         99.62722       41.39585       16.94526
H         98.58618       42.43008       19.69568
H         97.96101       40.93742       18.15963
H         99.28480       40.71550       16.13645
H         99.23400       42.41220       16.72089
H        100.73449       41.43591       16.94407
N         98.83545       38.87403       19.73888
C         97.88481       39.49573       20.65537
C         96.47749       38.98899       20.36860
O         96.30236       37.77888       20.36136
C         98.29535       39.20502       22.09903
H         99.03912       37.87056       19.87249
H         97.94010       40.56525       20.59650
H         98.33011       38.11311       22.29300
H         99.29932       39.64038       22.29746
H         97.57106       39.67512       22.79983
N         95.39030       39.80656       20.16168
C         95.37238       41.26784       20.27601
C         94.60570       41.90189       19.12382
O         95.15371       42.76080       18.44525
C         94.76529       41.62885       21.64277
C         95.01511       43.09461       22.02235
C         94.47005       43.38902       23.38935
O         93.60764       44.23957       23.53521
O         94.94311       42.72632       24.46327
H         94.47971       39.33839       20.04075
H         96.37471       41.70824       20.26615
H         95.26984       41.00361       22.41285
H         93.68027       41.38716       21.65979
H         94.54977       43.76677       21.27113
H         96.11037       43.28904       22.04239
N         93.32188       41.52268       18.85128
C         92.53542       42.09455       17.77492
H         91.60371       42.52840       18.19512
H         93.07435       42.89205       17.22199
H         92.25957       41.29434       17.05585
H         92.87884       40.78911       19.42202
Ca       100.79200       50.06176       23.61524
O         98.31308       50.54550       22.36888
H         97.80780       51.24394       22.85450
H         97.82446       50.41505       21.52036
O         99.02190       48.00086       24.02276
H         98.28025       48.65234       24.02177
H         98.77876       47.35197       24.72706
O        103.16251       49.88393       21.41189
H        103.08794       49.03095       20.91560
H        103.90795       50.35141       20.96392
O        102.13139       47.68841       23.02713
H        102.43044       46.82004       23.38927
H        101.71344       47.46454       22.16251
O        101.51670       48.39475       25.77904
H        100.74800       48.96565       26.02697
H        101.09998       47.54994       25.47801

Ca 1.70



