%chk=loop3.cluster135.chk
%nprocshared=48
%mem=10GB
%nosave
#b3lyp/svp scf=(tight,noincore) Test 
#IOP(5/87=12) Density=Current Pop=(MK,readradii) iop(6/33=2) iop(6/42=6)

loop3.cluster135 

   0  1 
C         64.04617       26.22282        6.27529
C         64.32646       26.65008        4.86775
O         63.70132       26.13412        3.95169
H         62.98015       25.92058        6.36477
H         64.71051       25.38914        6.57363
H         64.18548       27.08532        6.96276
N         65.18641       27.68001        4.63385
C         65.31452       28.31357        3.32805
C         64.65072       29.67857        3.38463
O         64.27249       30.12557        4.45507
C         66.77081       28.31003        2.80856
C         67.78959       28.70934        3.84029
O         68.66971       27.92368        4.15901
O         67.73530       29.92043        4.42321
H         65.67955       28.10541        5.43435
H         64.71383       27.76259        2.57119
H         66.85817       28.96781        1.91629
H         67.01506       27.27596        2.47723
N         64.33478       30.30116        2.21570
C         63.42579       31.43627        2.05616
C         63.92745       32.75433        2.62528
O         64.25899       33.63384        1.84336
C         61.98464       31.07461        2.50209
C         60.94028       31.99973        1.84738
C         59.50717       31.50273        2.08926
C         58.48020       32.36048        1.33125
N         57.12131       31.85977        1.54361
H         64.65998       29.85613        1.34345
H         63.37123       31.57614        0.95270
H         61.87765       31.06777        3.60993
H         61.77453       30.04333        2.14463
H         61.11117       31.98934        0.74826
H         61.06053       33.04102        2.21672
H         59.28138       31.51290        3.17656
H         59.42369       30.45766        1.71502
H         58.70984       32.33135        0.24194
H         58.54023       33.41830        1.67075
H         57.06103       30.84828        1.28316
H         56.84875       31.98171        2.54570
H         56.45627       32.39897        0.94293
N         63.92159       33.00147        3.96744
C         64.30456       34.29023        4.53015
C         65.31248       34.09228        5.65624
O         65.52880       32.96717        6.08275
C         62.99436       34.97524        4.99692
C         63.19358       36.32710        5.61421
O         63.67001       37.22446        4.93762
O         62.87541       36.58074        6.90606
H         63.54600       32.29772        4.61285
H         64.79684       34.92298        3.76046
H         62.45885       34.31419        5.70479
H         62.34075       35.10446        4.10192
N         65.95747       35.16688        6.19735
C         66.85137       35.04296        7.33679
C         66.17647       35.59254        8.55840
O         65.06825       36.09284        8.46315
H         65.77614       36.11001        5.83048
H         67.80318       35.58063        7.13987
H         67.09235       33.98194        7.55093
N         66.77262       35.45831        9.77273
C         66.10668       35.88297       10.99781
C         66.93756       36.88828       11.78218
O         66.35039       37.62254       12.56113
C         65.73832       34.63382       11.81932
C         64.94938       33.66040       10.96509
N         65.47351       32.45849       10.62776
O         63.84766       33.97601       10.54423
H         67.67371       34.96595        9.83163
H         65.15208       36.39592       10.75801
H         65.13541       34.90548       12.71252
H         66.67581       34.14797       12.16076
H         66.41237       32.18468       10.95066
H         64.94828       31.81374       10.01782
N         68.29002       37.02387       11.60341
C         69.09921       38.00365       12.31806
C         69.10190       37.77965       13.81868
O         69.49732       36.71476       14.27139
H         68.77908       36.43172       10.91953
H         68.72582       39.02091       12.07373
H         70.14917       37.93873       11.95866
N         68.65141       38.76800       14.64947
C         68.53092       38.66698       16.10901
C         67.49247       37.64506       16.56916
O         67.35910       37.42910       17.76675
C         69.85109       38.38320       16.83477
C         71.06072       39.12972       16.34865
C         71.08294       40.53175       16.24501
C         72.21488       38.39547       16.04082
C         72.26001       41.18278       15.85200
C         73.38598       39.04463       15.66658
C         73.41760       40.44142       15.57880
O         74.55905       41.07614       15.24716
H         68.34597       39.65463       14.22003
H         68.18102       39.66367       16.46423
H         70.05587       37.29259       16.79714
H         69.69513       38.64686       17.90571
H         70.20094       41.11736       16.47441
H         72.21387       37.31540       16.12144
H         72.28013       42.26290       15.77853
H         74.27199       38.45924       15.45913
H         75.38413       40.58823       15.10806
N         66.70784       37.00600       15.65839
C         65.60932       36.09981       15.93628
C         64.36679       36.83050       16.44491
O         63.29785       36.48511       15.97534
C         66.05851       34.74021       16.55699
C         67.06297       34.08576       15.55395
C         64.85100       33.80787       16.78096
C         67.62196       32.72378       15.95133
H         66.87292       37.18531       14.68024
H         65.25146       35.78855       14.92762
H         66.54801       34.91027       17.54000
H         67.92823       34.76450       15.40199
H         66.56124       33.95118       14.57112
H         65.16770       32.85199       17.24770
H         64.12094       34.26994       17.47576
H         64.34256       33.58246       15.81843
H         66.81812       31.96373       16.02317
H         68.32204       32.38240       15.15688
H         68.17184       32.79621       16.91018
N         64.41612       37.95159       17.23339
C         63.25119       38.78114       17.53918
C         62.18927       38.10597       18.40759
O         61.13644       38.69473       18.58969
C         63.71298       40.10434       18.16714
O         64.52168       40.78909       17.24200
H         65.31495       38.29868       17.55920
H         62.75311       39.04068       16.57542
H         64.26956       39.87814       19.10730
H         62.84741       40.75288       18.41605
H         65.33104       41.10342       17.72059
N         62.35523       36.82883       18.87181
C         61.23894       36.01259       19.36040
C         60.07998       36.09290       18.37583
O         58.92582       36.21336       18.77782
C         60.84637       36.33999       20.80275
H         63.24662       36.34762       18.71599
H         61.60020       34.95985       19.35947
H         60.47722       37.38151       20.89734
H         60.04641       35.64091       21.13426
H         61.72049       36.19691       21.47243
N         60.34477       36.07302       17.04296
C         59.36314       36.22481       15.99274
C         59.24792       34.92359       15.23259
O         60.13826       34.08303       15.32053
C         59.78124       37.38018       15.05597
H         61.31305       35.94179       16.75569
H         58.36647       36.45399       16.42795
H         59.80088       38.34680       15.60631
H         60.80344       37.20949       14.64683
H         59.08437       37.48198       14.19720
N         58.11942       34.65942       14.51918
C         57.88033       33.41619       13.79136
C         57.82348       32.16383       14.66039
O         57.87180       31.07369       14.10734
C         58.87138       33.23104       12.62631
C         58.68899       34.31314       11.56926
C         59.53485       33.99798       10.37680
O         60.83827       34.35919       10.37700
O         59.11062       33.22203        9.53411
H         57.37921       35.37903       14.49842
H         56.87176       33.47579       13.32904
H         58.64597       32.26291       12.12777
H         59.92481       33.19834       12.97775
H         58.95053       35.31621       11.96954
H         57.62113       34.34421       11.25068
N         57.58123       32.22735       16.00034
C         57.43280       31.02731       16.80657
H         56.37750       30.93806       17.13929
H         57.69394       30.10036       16.25042
H         58.09570       31.08573       17.69258
H         57.43846       33.13877       16.45672
Ca        61.96087       35.47073        8.70231
O         62.41388       36.05248       11.86662
H         61.76125       36.76265       12.08598
H         62.31409       35.38590       12.59175
O         62.55560       32.91285        7.87823
H         63.48742       32.77965        7.57809
H         62.22168       32.00613        8.08351
O         63.37425       38.15165        9.68788
H         64.32535       38.42046        9.73396
H         63.00062       38.41755       10.56474
O         60.40893       37.60272        9.67779
H         59.57684       37.49359        9.15380
H         60.65873       38.55287        9.55994
O         59.99258       35.02534        6.94843
H         59.77263       34.43376        6.19194
H         59.85710       34.44703        7.73267

Ca 1.70



