%chk=loop4.cluster32.chk
%nprocshared=48
%mem=10GB
%nosave
#b3lyp/svp scf=(tight,noincore) Test 
#IOP(5/87=12) Density=Current Pop=(MK,readradii) iop(6/33=2) iop(6/42=6)

loop4.cluster32 

   -3  1 
C         55.52842       56.04164       45.19425
C         54.80897       56.64019       46.36668
O         53.87768       57.40150       46.16601
H         56.45221       55.51834       45.51952
H         54.86992       55.32187       44.66533
H         55.82192       56.85297       44.49467
N         55.18186       56.32458       47.63690
C         54.57749       56.94344       48.81359
C         55.11051       58.36099       48.95234
O         56.30437       58.56621       49.12230
C         54.83228       56.05840       50.04670
C         54.65026       56.66778       51.41848
O         53.49411       57.17741       51.89479
O         55.61770       56.67540       52.15369
H         55.92657       55.62274       47.76730
H         53.46956       56.96138       48.69408
H         55.89750       55.74561       50.01422
H         54.21396       55.13816       49.94822
N         54.23375       59.38913       48.84793
C         54.56511       60.80731       48.86839
C         54.55297       61.37421       50.28513
O         55.14992       62.41933       50.50232
C         53.51889       61.53943       47.95204
C         53.77284       61.11545       46.47850
C         53.50736       63.06384       48.13370
C         52.85645       61.76933       45.44407
H         53.26990       59.13846       48.63934
H         55.58940       60.96559       48.45869
H         52.49230       61.21735       48.24516
H         53.63642       60.01633       46.39239
H         54.82106       61.35496       46.20062
H         54.49709       63.50046       47.90183
H         52.72035       63.52608       47.50477
H         53.21142       63.31607       49.17493
H         53.02910       62.86367       45.40129
H         53.09637       61.36066       44.43963
H         51.78942       61.56805       45.66716
N         53.82802       60.78310       51.27388
C         53.65387       61.37276       52.60287
C         54.27952       60.51771       53.69403
O         54.16145       60.86830       54.86191
C         52.15560       61.68505       52.80734
C         51.24166       60.52185       52.55157
O         51.06812       59.57176       53.48569
O         50.61629       60.46276       51.50463
H         53.33805       59.90256       51.07267
H         54.17407       62.35369       52.68141
H         51.90283       62.46930       52.06029
H         51.94539       62.11866       53.80871
N         55.07633       59.45613       53.38137
C         55.87945       58.74982       54.36287
C         55.14493       57.74792       55.23055
O         55.81446       57.05739       55.98243
H         55.24243       59.22909       52.39103
H         56.43516       59.47700       54.99244
H         56.64709       58.16847       53.81051
N         53.78852       57.58569       55.18701
C         53.12314       56.58768       56.03254
C         53.36859       55.14317       55.58515
O         52.87715       54.23504       56.24754
C         51.61965       56.89470       56.18775
C         50.76941       56.84680       54.95949
O         49.46261       57.13356       55.07788
O         51.23664       56.58389       53.86501
H         53.21860       58.20263       54.59497
H         53.52270       56.69916       57.06495
H         51.51574       57.91739       56.60730
H         51.18752       56.17819       56.91974
N         54.14465       54.84098       54.50161
C         54.41793       53.48076       54.07507
C         53.25403       52.83595       53.35745
O         53.26641       51.62955       53.18430
H         54.59617       55.59485       53.98177
H         54.74180       52.87872       54.95216
H         55.25316       53.47915       53.34270
N         52.23478       53.59867       52.86653
C         51.09295       53.03681       52.16134
C         50.94504       53.71089       50.81972
O         50.91287       54.92984       50.76048
C         49.81504       53.26245       52.97561
C         49.92912       52.61452       54.36082
C         48.64945       52.77142       55.12701
N         48.24512       53.99466       55.53269
O         47.97728       51.78773       55.39451
H         52.25839       54.61319       52.99670
H         51.19652       51.93915       52.02196
H         48.97014       52.78665       52.42535
H         49.60220       54.34892       53.07350
H         50.75203       53.07981       54.94572
H         50.15947       51.53499       54.23018
H         48.82498       54.81813       55.33700
H         47.36874       54.11196       56.06012
N         50.76108       52.95719       49.70168
C         50.51077       53.55636       48.40261
C         49.01994       53.50385       48.14432
O         48.48715       52.42865       47.91209
C         51.33365       52.80332       47.31957
C         50.94425       53.22897       45.89626
C         52.84082       52.99426       47.54627
H         50.69233       51.93439       49.79246
H         50.81278       54.62849       48.39725
H         51.12310       51.71278       47.40059
H         51.00222       54.33018       45.77756
H         51.60495       52.73874       45.15046
H         49.90681       52.89622       45.67623
H         53.13199       52.64460       48.55997
H         53.41145       52.38851       46.80944
H         53.12863       54.06085       47.43617
N         48.27803       54.65350       48.18306
C         46.87564       54.68471       47.82832
C         46.75190       54.77273       46.32118
O         47.75468       54.87606       45.63140
C         46.05532       55.76216       48.61930
C         45.83354       57.13173       47.99712
N         46.81107       58.05678       47.94049
O         44.71662       57.42323       47.59470
H         48.72296       55.52416       48.43042
H         46.44313       53.71927       48.16674
H         46.42473       55.86211       49.66406
H         45.03214       55.33881       48.70064
H         47.72100       57.86388       48.34925
H         46.63314       58.98828       47.53526
N         45.53264       54.71375       45.74510
C         45.31804       54.77380       44.30166
C         45.80031       56.09378       43.69316
O         46.27629       56.09218       42.56533
C         43.81022       54.58650       44.07046
C         43.40424       54.66301       42.63041
C         43.81440       53.68444       41.71153
C         42.59548       55.72441       42.20257
C         43.41392       53.77222       40.37487
C         42.20533       55.81558       40.86944
C         42.61240       54.83928       39.94947
O         42.23895       54.92125       38.65771
H         44.71830       54.60464       46.36817
H         45.86276       53.93699       43.80815
H         43.28435       55.37707       44.64922
H         43.49045       53.60270       44.48213
H         44.43329       52.85455       42.03213
H         42.27526       56.48578       42.90377
H         43.72639       53.01271       39.66970
H         41.58656       56.64507       40.55387
H         41.69670       55.65532       38.33505
N         45.64280       57.26668       44.36526
C         46.04155       58.56736       43.82424
C         47.55492       58.76724       43.83747
O         48.04238       59.62651       43.11604
C         45.30372       59.68637       44.58918
C         43.79301       59.60830       44.29925
C         43.01593       60.58584       45.12667
O         42.10871       60.13830       46.01623
O         43.19192       61.78574       44.99170
H         45.19454       57.23306       45.28474
H         45.71657       58.62389       42.76160
H         45.67598       60.69054       44.29517
H         45.48016       59.55953       45.67800
H         43.41645       58.58803       44.52514
H         43.60843       59.81041       43.22074
N         48.36139       57.98264       44.60561
C         49.82001       57.99749       44.50912
C         50.28821       56.99411       43.46625
O         51.39740       57.13496       42.96966
C         50.41791       57.65553       45.88294
C         50.14934       58.79284       46.88327
C         50.38881       58.34809       48.28164
O         51.09440       59.07033       49.13137
O         49.91517       57.31352       48.68475
H         47.92701       57.29135       45.22870
H         50.18578       59.00143       44.19484
H         51.50440       57.46610       45.82680
H         49.94035       56.70618       46.22258
H         49.09022       59.09843       46.82627
H         50.78605       59.67121       46.64758
N         49.50222       55.94504       43.09001
C         49.90755       55.00366       42.07156
H         50.88028       54.54017       42.33732
H         49.14415       54.20039       41.98150
H         49.98822       55.52340       41.09376
H         48.59427       55.79658       43.54055
Ca        51.66696       57.80672       50.84923
O         48.40938       57.52788       52.09624
H         48.43589       57.07601       52.97251
H         47.56880       58.04798       52.12786

Ca 1.70



