%chk=loop3.cluster132.chk
%nprocshared=48
%mem=10GB
%nosave
#b3lyp/svp scf=(tight,noincore) Test 
#IOP(5/87=12) Density=Current Pop=(MK,readradii) iop(6/33=2) iop(6/42=6)

loop3.cluster132 

   0  1 
C         39.15335       11.10753       -2.10937
C         38.51766       11.78547       -3.29031
O         38.26711       11.14494       -4.30092
H         40.13624       11.59593       -1.91973
H         38.52521       11.21818       -1.20234
H         39.34101       10.03220       -2.30972
N         38.31213       13.12786       -3.24734
C         38.00472       13.92202       -4.43621
C         36.53351       13.88728       -4.83752
O         35.70209       13.38690       -4.08721
C         38.49039       15.36933       -4.13276
C         38.46546       16.34565       -5.27424
O         37.82254       17.52266       -5.14483
O         39.08025       16.10520       -6.29980
H         38.58773       13.61702       -2.37975
H         38.61303       13.52687       -5.27907
H         39.55305       15.30155       -3.81402
H         37.90573       15.77829       -3.27730
N         36.14093       14.48806       -6.00612
C         34.75904       14.74896       -6.38493
C         34.06440       15.61428       -5.35208
O         32.84948       15.57711       -5.24826
C         33.97298       13.46600       -6.74500
C         34.57194       12.68732       -7.93925
C         34.65578       13.58523       -9.18795
C         34.94584       12.85198      -10.49969
N         34.72332       13.76755      -11.62355
H         36.86704       14.87106       -6.62681
H         34.76353       15.39284       -7.28659
H         32.94067       13.76642       -7.04005
H         33.87896       12.79880       -5.86342
H         33.87557       11.84441       -8.14755
H         35.56643       12.26149       -7.68633
H         35.43865       14.36325       -9.05695
H         33.66631       14.07485       -9.29763
H         34.25220       11.99061      -10.60622
H         35.99135       12.46783      -10.51444
H         35.38539       14.57597      -11.57622
H         34.85207       13.26152      -12.52787
H         33.74075       14.13006      -11.59261
N         34.81042       16.42664       -4.54310
C         34.23114       17.14768       -3.44135
C         34.90605       18.50168       -3.21246
O         35.77537       18.62053       -2.35953
C         34.33499       16.26862       -2.19360
C         33.59056       16.90312       -1.06502
O         32.96760       18.10118       -1.25001
O         33.58573       16.35401        0.02202
H         35.82499       16.40401       -4.60193
H         33.14642       17.31366       -3.62561
H         35.40200       16.10100       -1.92560
H         33.87151       15.27564       -2.39215
N         34.44567       19.59228       -3.87185
C         34.83592       20.95483       -3.54759
C         34.13282       21.48167       -2.30766
O         32.92963       21.31067       -2.18230
H         33.75992       19.45673       -4.62269
H         34.45106       21.60047       -4.36033
H         35.94103       21.07258       -3.51924
N         34.82794       22.19764       -1.37980
C         34.20452       22.85301       -0.22503
C         34.68346       24.31130       -0.10292
O         34.44446       24.92954        0.92584
C         34.57195       22.03301        1.01868
C         34.05716       20.62798        0.87973
N         34.91238       19.61622        0.61777
O         32.85961       20.40721        0.97482
H         35.84885       22.28515       -1.48891
H         33.09340       22.85527       -0.28611
H         34.13415       22.45857        1.94698
H         35.67658       22.01940        1.11725
H         35.91553       19.79762        0.47878
H         34.56816       18.65754        0.52221
N         35.35285       24.92907       -1.12744
C         35.90048       26.28077       -1.06136
C         37.02773       26.38014       -0.05883
O         37.94939       25.57744       -0.11661
H         35.46674       24.43358       -2.02139
H         35.09297       27.01023       -0.83349
H         36.32321       26.53210       -2.05539
N         36.99338       27.34394        0.91097
C         37.88180       27.43161        2.07725
C         37.50392       26.40441        3.14355
O         37.70414       26.68933        4.31302
C         39.38636       27.42398        1.76256
C         40.22187       27.80266        2.96979
C         40.30545       29.14304        3.39391
C         40.93606       26.81700        3.66974
C         41.11588       29.48929        4.48310
C         41.73147       27.16361        4.76532
C         41.83484       28.50279        5.16724
O         42.62651       28.84921        6.20312
H         36.24573       28.05201        0.85117
H         37.64358       28.42388        2.52875
H         39.62891       28.12590        0.93598
H         39.65732       26.40198        1.42928
H         39.76451       29.92024        2.86779
H         40.86908       25.77929        3.37049
H         41.19412       30.52565        4.79041
H         42.27360       26.39185        5.29645
H         43.16119       28.19426        6.67528
N         36.89817       25.22188        2.80467
C         36.20141       24.31041        3.69661
C         34.90177       24.97645        4.14790
O         33.84833       24.57975        3.67152
C         37.10870       23.63798        4.76483
C         38.25778       22.87139        4.04187
C         36.26294       22.65700        5.59660
C         39.21598       22.12218        4.97137
H         36.84163       24.95680        1.82740
H         35.86661       23.46623        3.05756
H         37.53496       24.40582        5.44470
H         38.86276       23.58715        3.44443
H         37.82162       22.12564        3.33915
H         36.85242       22.19752        6.41296
H         35.42899       23.18101        6.08202
H         35.83699       21.85940        4.95049
H         39.71080       22.82629        5.67068
H         38.69108       21.33095        5.54437
H         39.99394       21.61331        4.36245
N         34.89894       26.03560        5.00151
C         33.69598       26.78496        5.36510
C         32.68086       25.92807        6.11145
O         31.49427       26.21177        6.04734
C         34.10800       27.96834        6.24967
O         34.97565       28.80862        5.53087
H         35.78843       26.33627        5.40507
H         33.22056       27.18848        4.43834
H         34.61932       27.54893        7.15036
H         33.22628       28.55568        6.57709
H         35.67598       29.11906        6.16208
N         33.09930       24.83824        6.81606
C         32.22547       23.90894        7.52844
C         31.11558       23.33041        6.64787
O         30.02855       23.05467        7.14123
C         31.72234       24.53358        8.83393
H         34.10315       24.64260        6.84706
H         32.86573       23.05338        7.83460
H         32.59281       24.87093        9.43971
H         31.06226       25.40444        8.64355
H         31.17199       23.77436        9.42900
N         31.32212       23.15201        5.31411
C         30.30094       22.68084        4.38672
C         30.01423       21.20116        4.51800
O         30.94245       20.40327        4.54717
C         30.75444       22.90946        2.94395
H         32.22873       23.43413        4.92710
H         29.37316       23.28499        4.51026
H         29.94979       22.57768        2.25312
H         30.94118       23.98862        2.76674
H         31.67900       22.33586        2.72196
N         28.72349       20.76653        4.47673
C         28.32864       19.36802        4.37193
C         28.92165       18.51994        5.48143
O         29.56941       17.51699        5.20853
C         28.59694       18.81147        2.95186
C         27.85835       19.61028        1.86038
C         27.74822       18.81844        0.58244
O         28.82326       18.40227       -0.11288
O         26.64408       18.45514        0.21021
H         27.96903       21.46810        4.44397
H         27.22629       19.32010        4.50428
H         28.21244       17.76573        2.93905
H         29.67665       18.80497        2.72608
H         28.33352       20.60018        1.69546
H         26.81651       19.78430        2.21034
N         28.72893       18.88578        6.77773
C         29.22163       18.11068        7.89772
H         30.02997       18.67610        8.40432
H         28.39241       17.94537        8.61744
H         29.61113       17.11649        7.59142
H         28.22459       19.76155        6.97914
Ca        31.00494       18.88363       -0.42381
O         30.94017       17.08463        1.56392
H         31.53074       16.79148        0.83589
H         31.51343       17.67705        2.11131
O         29.35326       20.87263       -2.88994
H         29.32192       20.91217       -3.87903
H         28.40788       20.77884       -2.61535
O         29.45463       17.25217       -2.54295
H         29.70935       16.52248       -3.16051
H         28.47301       17.33621       -2.63607
O         31.43826       19.41914       -3.94145
H         30.84868       18.62993       -3.96596
H         31.49928       19.69777       -4.88875
O         30.32348       22.18527       -0.36130
H         30.63213       23.12550       -0.33100
H         29.34738       22.24097       -0.20459

Ca 1.70



