%chk=loop3.cluster172.chk
%nprocshared=48
%mem=10GB
%nosave
#b3lyp/svp scf=(tight,noincore) Test 
#IOP(5/87=12) Density=Current Pop=(MK,readradii) iop(6/33=2) iop(6/42=6)

loop3.cluster172 

   0  1 
C         48.43480       17.70024       12.81585
C         47.71142       18.82210       12.13738
O         47.58084       18.79756       10.92195
H         49.35403       18.10398       13.28996
H         47.78891       17.23904       13.58988
H         48.73086       16.92266       12.07812
N         47.20121       19.85159       12.87355
C         46.59252       21.02259       12.24898
C         45.08470       21.04081       12.39925
O         44.51949       20.24105       13.12959
C         47.13977       22.31919       12.90484
C         48.62580       22.52170       12.82623
O         49.16539       23.63208       13.36538
O         49.34843       21.70191       12.28382
H         47.26979       19.81382       13.90240
H         46.80098       21.02874       11.15799
H         46.85374       22.32385       13.98141
H         46.66985       23.20581       12.43053
N         44.39062       22.02460       11.75055
C         42.98163       22.32289       11.96058
C         42.69995       22.51613       13.43283
O         41.78696       21.89601       13.97211
C         42.04712       21.33676       11.24042
C         42.15775       21.49406        9.70442
C         40.99606       20.82106        8.95966
C         40.92244       19.30380        9.17228
N         39.66299       18.77195        8.65227
H         44.91291       22.66655       11.14055
H         42.78232       23.31589       11.50212
H         41.00385       21.60433       11.52094
H         42.24254       20.29445       11.57151
H         43.14450       21.13842        9.33985
H         42.06923       22.57642        9.45729
H         41.06821       21.04069        7.87071
H         40.05883       21.28809        9.33411
H         40.95680       19.07654       10.25485
H         41.78913       18.80394        8.68270
H         39.54193       17.79164        8.99432
H         38.85901       19.33813        9.01222
H         39.66159       18.78298        7.60767
N         43.43996       23.41082       14.14645
C         43.22122       23.66867       15.56495
C         44.02678       24.86854       16.01983
O         45.22026       24.94333       15.74000
C         43.62474       22.43876       16.40491
C         43.32056       22.51193       17.88646
O         42.70615       23.56581       18.46400
O         43.66334       21.58033       18.59255
H         44.18171       23.93264       13.64561
H         42.13927       23.87911       15.71916
H         44.72048       22.28652       16.28988
H         43.11359       21.53377       16.02418
N         43.44321       25.81790       16.79863
C         44.17670       26.92074       17.38244
C         44.64351       26.55267       18.76742
O         43.82453       26.18363       19.59758
H         42.46413       25.68003       17.09655
H         43.50478       27.80137       17.43723
H         45.04133       27.20531       16.74411
N         45.96902       26.60373       19.07629
C         46.50474       26.22180       20.37596
C         47.33753       27.33912       20.96630
O         47.03784       27.77622       22.06908
C         47.32143       24.92900       20.24602
C         46.42028       23.75192       19.96339
N         46.61025       22.97343       18.87569
O         45.52314       23.48333       20.74738
H         46.63350       26.89605       18.34383
H         45.69466       26.01483       21.10064
H         47.82248       24.71742       21.21421
H         48.10109       25.04174       19.46165
H         47.36928       23.16852       18.21053
H         46.00780       22.15627       18.71417
N         48.39739       27.86582       20.28664
C         49.18253       28.95414       20.83650
C         49.97517       28.50844       22.04429
O         50.88907       27.70835       21.90566
H         48.62110       27.52522       19.34091
H         48.49364       29.78935       21.09385
H         49.89200       29.34277       20.07428
N         49.67255       29.01614       23.27173
C         50.42103       28.74743       24.49861
C         50.43100       27.27827       24.88478
O         51.41611       26.82435       25.44563
C         51.84615       29.34244       24.42869
C         51.79252       30.75573       23.91576
C         52.11390       31.01230       22.57406
C         51.37255       31.80954       24.74228
C         52.00046       32.30119       22.05707
C         51.27968       33.10670       24.22690
C         51.58547       33.35307       22.87849
O         51.47802       34.59375       22.36361
H         48.86935       29.65834       23.34699
H         49.88109       29.28101       25.31259
H         52.44408       28.72096       23.72938
H         52.36130       29.30602       25.41566
H         52.42099       30.20421       21.92148
H         51.12113       31.62612       25.78006
H         52.22710       32.47904       21.01383
H         50.96080       33.91691       24.87004
H         51.18755       35.34328       22.90164
N         49.34315       26.48800       24.63021
C         49.12885       25.13425       25.14774
C         48.65613       25.25216       26.59131
O         47.49515       24.98180       26.85229
C         50.31939       24.13751       24.94962
C         50.75690       24.09226       23.46453
C         49.90270       22.72350       25.41409
C         52.03234       23.27797       23.22038
H         48.56870       26.89360       24.08607
H         48.26757       24.71954       24.57240
H         51.17705       24.46355       25.57383
H         50.96603       25.11868       23.09889
H         49.92718       23.67241       22.85593
H         49.08508       22.32986       24.77499
H         50.75412       22.01506       25.39340
H         49.52932       22.72413       26.44893
H         52.24707       23.25601       22.13157
H         52.89357       23.74956       23.74062
H         51.93580       22.22760       23.55771
N         49.48851       25.71905       27.56606
C         49.06668       25.94340       28.94695
C         48.83478       24.65472       29.71276
O         48.18266       24.69209       30.74910
C         50.13771       26.77525       29.66542
O         50.34340       27.99667       29.00425
H         50.44567       25.97115       27.31515
H         48.11572       26.52498       28.92922
H         51.09227       26.20376       29.64084
H         49.87596       26.96136       30.72802
H         49.46773       28.46441       28.97661
N         49.31415       23.46713       29.24594
C         48.97313       22.17066       29.81028
C         47.46479       21.99596       29.82097
O         46.91882       21.41777       30.74770
C         49.62068       21.93993       31.18094
H         49.89527       23.47046       28.39995
H         49.38816       21.39926       29.12364
H         49.24678       22.66407       31.93292
H         49.39614       20.91009       31.53397
H         50.72315       22.04096       31.09486
N         46.73726       22.47929       28.77358
C         45.29620       22.34144       28.67120
C         44.97682       21.38929       27.54671
O         45.84978       21.04362       26.76291
C         44.64358       23.71280       28.41322
H         47.22936       22.92952       27.99599
H         44.87566       21.90798       29.60342
H         44.77436       24.38740       29.28569
H         45.09800       24.20197       27.52443
H         43.55539       23.60832       28.21368
N         43.71883       20.87587       27.45768
C         43.27815       19.96518       26.40730
C         44.00365       18.61336       26.38510
O         43.69589       17.81192       25.51265
C         43.27766       20.67695       25.02732
C         42.46269       21.98921       25.08605
C         42.20255       22.59729       23.72970
O         43.20911       22.85004       22.87390
O         41.05882       22.86347       23.39747
H         43.02407       21.16091       28.16284
H         42.21471       19.71770       26.61492
H         42.80839       19.99065       24.28948
H         44.31197       20.89909       24.68429
H         43.00422       22.71948       25.72363
H         41.47451       21.78633       25.55626
N         44.95282       18.26700       27.30834
C         45.60139       16.96946       27.28715
H         46.52000       16.99630       27.91175
H         44.91898       16.19598       27.70063
H         45.90146       16.69132       26.25409
H         45.22101       18.91673       28.05832
Ca        42.73569       23.55634       20.74741
O         41.56599       21.04651       20.51757
H         40.76052       20.64718       20.92678
H         41.48895       20.82870       19.55575
O         39.74580       24.51210       19.90129
H         39.99149       25.30551       19.36195
H         38.75940       24.46068       19.83280
O         43.93093       25.47153       22.76485
H         44.64812       25.08642       23.32692
H         44.10409       26.44546       22.76210
O         41.52811       26.46434       21.56042
H         41.96999       27.21989       21.09812
H         41.61746       26.67869       22.52275

Ca 1.70



