%chk=loop4.cluster129.chk
%nprocshared=48
%mem=10GB
%nosave
#b3lyp/svp scf=(tight,noincore) Test 
#IOP(5/87=12) Density=Current Pop=(MK,readradii) iop(6/33=2) iop(6/42=6)

loop4.cluster129 

   -3  1 
C         65.35143       23.16631       62.38676
C         66.16686       23.04716       63.64252
O         66.61833       24.05654       64.16282
H         64.44814       23.78106       62.58314
H         65.95830       23.64346       61.59074
H         65.01921       22.16966       62.02309
N         66.37462       21.82361       64.20149
C         67.12434       21.59729       65.43291
C         66.50454       22.36472       66.58265
O         67.20537       23.02775       67.33674
C         68.63260       21.87743       65.26298
C         69.15518       21.20623       64.02800
O         69.66657       21.87490       63.14496
O         68.97894       19.88908       63.83582
H         65.95225       20.99744       63.74945
H         67.01984       20.51281       65.66890
H         69.17839       21.50851       66.15952
H         68.81221       22.96986       65.16995
N         65.16325       22.27646       66.78156
C         64.47983       22.86908       67.91814
C         64.21291       21.72909       68.88458
O         63.66980       20.72672       68.44046
C         63.12658       23.49611       67.47532
C         63.36810       24.68417       66.51564
C         62.29695       23.94394       68.70205
C         62.07654       25.22628       65.90446
H         64.61292       21.67857       66.14585
H         65.08804       23.68540       68.33566
H         62.54650       22.70755       66.94630
H         64.01399       24.35614       65.67435
H         63.89400       25.50296       67.05614
H         62.12717       23.09964       69.40190
H         62.81116       24.76480       69.24554
H         61.28372       24.27840       68.40993
H         62.31811       26.05798       65.21177
H         61.56421       24.42131       65.33596
H         61.39030       25.62452       66.67805
N         64.50563       21.76472       70.21592
C         65.09020       22.88578       70.95214
C         66.40533       22.51553       71.60181
O         67.08589       23.41637       72.05330
C         64.05829       23.42947       71.96774
C         63.51446       22.41937       72.95133
O         62.43277       22.73479       73.68665
O         64.01858       21.31434       73.07383
H         64.24338       20.92861       70.75281
H         65.33612       23.73619       70.30207
H         63.19750       23.79871       71.37809
H         64.46162       24.30086       72.52928
N         66.83978       21.22247       71.68052
C         68.13259       20.84100       72.21970
C         68.39684       21.37351       73.60876
O         67.61510       21.12471       74.51582
H         66.24867       20.46005       71.32942
H         68.92624       21.18692       71.52579
H         68.18067       19.73106       72.25591
N         69.52168       22.11311       73.83661
C         69.91640       22.59069       75.15775
C         69.42697       24.01567       75.41944
O         69.66382       24.53879       76.50011
C         71.45289       22.48278       75.26222
C         71.95625       22.73397       76.65329
O         72.75164       23.63448       76.86683
O         71.54356       21.95063       77.66814
H         70.15580       22.30064       73.04420
H         69.47509       21.92334       75.93088
H         71.92412       23.19138       74.54243
H         71.76296       21.45326       74.97933
N         68.70686       24.69511       74.48080
C         68.17572       26.02801       74.68344
C         69.22736       27.11112       74.64314
O         68.86358       28.26533       74.80753
H         68.49518       24.24407       73.59447
H         67.61162       26.06195       75.64125
H         67.45833       26.25454       73.86387
N         70.54658       26.82651       74.40350
C         71.59325       27.84292       74.39858
C         71.34264       28.83901       73.30094
O         71.25974       30.03580       73.56025
C         71.72984       28.48614       75.79336
C         72.18064       27.44205       76.82174
C         72.20474       27.97235       78.23020
N         72.61426       27.16988       79.23675
O         71.84594       29.11599       78.47397
H         70.83778       25.85918       74.21660
H         72.56377       27.35393       74.15377
H         70.76247       28.93269       76.10284
H         72.48518       29.30166       75.76777
H         73.20022       27.09531       76.54389
H         71.49459       26.56927       76.80547
H         72.92040       26.20510       79.04160
H         72.62550       27.51545       80.20694
N         71.22475       28.39876       72.02015
C         71.01912       29.29574       70.89712
C         72.19010       29.20969       69.95794
O         72.95557       28.25148       70.02609
C         69.67945       29.00532       70.17399
C         69.63032       27.58934       69.56733
C         68.49895       29.20625       71.13434
H         71.31013       27.38489       71.83856
H         70.98920       30.34922       71.25611
H         69.57024       29.74023       69.34633
H         69.71427       26.80749       70.35116
H         68.67058       27.43296       69.03263
H         70.45421       27.44782       68.83655
H         67.53938       29.10070       70.58624
H         68.52182       28.45824       71.95566
H         68.53463       30.22366       71.57941
N         72.43749       30.22261       69.08994
C         73.59839       30.22689       68.22093
C         73.21083       30.37088       66.77896
O         72.05748       30.64974       66.46706
C         74.55066       31.36533       68.64909
C         75.23282       31.03399       69.95074
N         76.06673       29.96839       70.02484
O         75.05192       31.73600       70.93395
H         71.80958       31.04600       69.08747
H         74.13602       29.25711       68.27061
H         73.97636       32.31733       68.73057
H         75.35509       31.52087       67.90144
H         76.24106       29.38192       69.19484
H         76.54842       29.73792       70.90536
N         74.16940       30.20374       65.82967
C         73.93585       30.44390       64.42589
C         74.63184       29.39670       63.57481
O         75.78386       29.57742       63.20231
C         74.38251       31.88505       64.13253
C         74.43399       32.21998       62.66687
C         73.39467       31.85773       61.79067
C         75.56102       32.88626       62.16437
C         73.50401       32.13501       60.42628
C         75.65680       33.18082       60.80755
C         74.63439       32.79502       59.93075
O         74.73489       33.05004       58.61217
H         75.13622       30.00099       66.13263
H         72.84877       30.39280       64.19449
H         75.39119       32.04993       64.57686
H         73.67989       32.56960       64.65480
H         72.51858       31.33533       62.15252
H         76.36424       33.18293       62.82859
H         72.71404       31.82944       59.75295
H         76.53063       33.70099       60.43831
H         75.51715       33.48306       58.24145
N         73.94888       28.28495       63.18815
C         74.50252       27.29257       62.27470
C         74.36746       27.70107       60.78865
O         75.41204       27.82283       60.16384
C         73.96878       25.87522       62.58974
C         74.76404       25.10656       63.67106
C         74.77293       25.72823       65.03698
O         74.06141       25.16635       66.03270
O         75.51855       26.66343       65.28136
H         72.99773       28.14480       63.56077
H         75.60067       27.21440       62.44494
H         74.08381       25.24774       61.68071
H         72.88766       25.90650       62.84940
H         75.81777       24.95615       63.34237
H         74.31073       24.09591       63.75221
N         73.18892       27.88402       60.09825
C         71.84271       27.76985       60.64962
C         70.86752       28.78700       60.06218
O         71.18713       29.47594       59.10133
C         71.27659       26.36481       60.35408
C         71.06624       26.07042       58.85566
C         70.58205       24.66475       58.68391
O         71.21327       23.87528       57.99958
O         69.44932       24.26794       59.29351
H         73.26882       28.05319       59.08212
H         71.87409       27.92260       61.73688
H         70.29747       26.25497       60.86892
H         71.95837       25.60584       60.77401
H         72.01057       26.20899       58.28624
H         70.29873       26.75448       58.43203
N         69.60310       28.85190       60.56786
C         68.53822       29.60077       59.93723
H         67.61911       29.52042       60.55816
H         68.80421       30.66998       59.81857
H         68.31095       29.15117       58.94533
H         69.37467       28.30662       61.41134
Ca        69.30425       19.18063       61.72241
O         71.31713       17.90574       63.20225
H         71.30605       16.99040       62.82650
H         70.93182       17.80967       64.10872
O         70.39906       18.31820       58.92494
H         69.46442       18.57187       58.71954
H         70.71756       17.85087       58.11337
O         67.12782       17.73948       62.66547
H         66.88199       17.19416       61.87697
H         66.27055       17.93591       63.11691
O         69.41496       16.41681       61.01926
H         68.72749       16.49343       60.31100
H         69.47378       15.44916       61.21362
O         72.01317       19.88755       60.96588
H         72.21268       19.90086       59.99668
H         72.44132       20.70585       61.32033
O         69.59748       21.18164       59.64755
H         69.87238       21.25583       58.69971
H         69.99535       21.97124       60.09074

Ca 1.70



