%chk=loop2.cluster135.chk
%nprocshared=48
%mem=10GB
%nosave
#b3lyp/svp scf=(tight,noincore) Test 
#IOP(5/87=12) Density=Current Pop=(MK,readradii) iop(6/33=2) iop(6/42=6)

loop2.cluster135 

   -2  1 
C         92.11643       97.56502       29.33180
C         92.16109       98.87419       30.06230
O         91.15139       99.56108       30.12919
H         93.11620       97.08089       29.32664
H         91.39085       96.87715       29.80979
H         91.82118       97.74910       28.27751
N         93.33264       99.29922       30.61225
C         93.48833      100.61947       31.21480
C         92.69366      100.77937       32.51302
O         92.68487      101.87184       33.07043
C         94.99654      100.87898       31.46757
C         95.36280      102.32681       31.32401
O         95.72135      103.05291       32.39700
O         95.40749      102.82871       30.21030
H         94.16013       98.69296       30.52146
H         93.12022      101.35082       30.46147
H         95.61807      100.36278       30.70385
H         95.29685      100.45854       32.45296
N         92.04564       99.71782       33.08399
C         91.31002       99.82465       34.33666
C         91.00161       98.44541       34.92397
O         90.99506       97.46882       34.18420
C         89.99044      100.58490       34.10467
H         92.13533       98.79225       32.64742
H         91.98474      100.35371       35.03978
H         89.39877      100.68664       35.03707
H         90.17593      101.60152       33.70396
H         89.36962      100.03044       33.36528
N         90.72768       98.25198       36.24603
C         90.70567       99.30952       37.25440
C         91.70604       98.98582       38.36480
O         92.28652       97.91086       38.35426
C         89.26685       99.38192       37.76230
C         88.94541      100.51567       38.69078
O         89.43535      101.61674       38.50029
O         87.87362      100.41205       39.49359
H         90.50970       97.29169       36.55814
H         90.96318      100.29098       36.83378
H         89.08584       98.41927       38.23123
H         88.55165       99.43969       36.91632
N         91.97249       99.89458       39.34902
C         92.86705       99.62559       40.46338
C         94.27401       99.30043       40.00656
O         94.71894       99.87301       39.02276
H         91.52714      100.81702       39.31776
H         92.43912       98.79826       41.05741
H         92.91051      100.52930       41.10909
N         95.06008       98.38955       40.65602
C         94.72410       97.80951       41.95481
C         94.01062       96.45696       41.81550
O         93.73619       95.82185       42.82457
C         96.01700       97.76701       42.81063
C         95.80451       97.80846       44.30928
N         96.87599       97.88355       45.13307
O         94.67729       97.83386       44.78198
H         96.00193       98.20644       40.27466
H         94.05473       98.51408       42.49163
H         96.59340       98.69490       42.59757
H         96.64684       96.90072       42.51311
H         97.83230       97.88441       44.74803
H         96.74757       97.96315       46.15282
N         93.63497       95.98314       40.58315
C         92.85817       94.76540       40.37873
C         91.50576       94.89078       41.03876
O         91.18059       94.07558       41.88980
H         93.87257       96.52293       39.74309
H         93.41672       93.88897       40.77606
H         92.71051       94.61437       39.28754
N         90.69423       95.94820       40.74137
C         89.55075       96.31402       41.57431
C         88.21230       96.29620       40.79484
O         88.15636       97.33815       39.87021
C         89.89295       97.69219       42.18673
C         88.81840       98.20412       43.14413
O         91.12159       97.56439       42.86617
H         90.97738       96.59777       39.99409
H         89.42710       95.58895       42.40540
H         90.00795       98.42384       41.35189
H         91.29641       98.39660       43.37513
H         89.08648       99.23448       43.46504
H         87.82913       98.24624       42.64691
H         88.77096       97.54703       44.03628
N         88.03879       95.00782       40.11399
C         86.79770       94.90861       39.32383
C         85.57321       94.56897       40.16522
O         85.70138       94.13553       41.30205
C         86.98286       93.94187       38.13202
C         88.00757       94.49205       37.09611
C         87.32616       92.51958       38.60782
C         89.49126       94.35023       37.45330
H         88.13690       94.21169       40.78261
H         86.57494       95.88699       38.85995
H         86.00889       93.90831       37.59399
H         87.78641       95.56523       36.90419
H         87.86152       93.95295       36.13681
H         87.45446       91.83524       37.75034
H         88.27183       92.51258       39.18936
H         86.52027       92.12494       39.26097
H         89.76783       93.27738       37.51493
H         90.10189       94.80821       36.64774
H         89.75862       94.85347       38.39804
N         84.33724       94.85481       39.66792
C         83.10605       94.72461       40.42238
C         82.04133       94.02128       39.58466
O         81.55551       94.59193       38.61842
C         82.63771       96.13897       40.81035
C         83.54737       96.77196       41.83651
O         83.36198       96.51515       43.01272
O         84.61447       97.53401       41.52406
H         84.28047       95.29379       38.74921
H         83.27411       94.14093       41.35518
H         81.63225       96.07182       41.28247
H         82.53027       96.78600       39.91189
N         81.63752       92.76307       39.91489
C         80.58441       92.02159       39.21406
C         80.88592       91.85731       37.71611
O         81.96188       91.37935       37.40226
C         80.49685       90.61059       39.84033
C         79.34440       89.78715       39.32763
C         79.52626       88.85242       38.29222
C         78.08026       89.92460       39.91936
C         78.45011       88.07039       37.85767
C         77.01230       89.13448       39.48978
C         77.19579       88.20838       38.45982
H         82.09873       92.31026       40.71949
H         79.62730       92.55059       39.39006
H         80.39228       90.68718       40.94489
H         81.45525       90.07200       39.66503
H         80.49563       88.73140       37.82378
H         77.93115       90.63270       40.72472
H         78.58901       87.35193       37.05975
H         76.04405       89.23680       39.96131
H         76.36643       87.59556       38.13171
N         79.96201       92.15954       36.73587
C         80.18845       91.86515       35.31671
C         81.33668       92.60730       34.65573
O         81.66514       92.30438       33.51312
C         78.86883       92.28477       34.66153
C         77.86534       92.04301       35.77288
C         78.60446       92.56987       37.00019
H         80.34995       90.76685       35.24505
H         78.87801       93.38581       34.48822
H         78.65448       91.77176       33.69922
H         76.86258       92.49143       35.61301
H         77.75510       90.93987       35.88546
H         78.57398       93.68054       37.06208
H         78.13984       92.09510       37.88857
N         81.98955       93.60098       35.30946
C         83.17004       94.28332       34.79865
C         84.26793       93.25699       34.55243
O         84.87427       93.27631       33.49247
C         83.56895       95.34784       35.83610
C         84.84583       96.13467       35.52671
C         85.15809       97.13907       36.60878
O         84.28140       97.38215       37.60370
O         86.21051       97.75435       36.57640
H         81.64680       93.86795       36.24222
H         82.94232       94.81307       33.84550
H         83.70689       94.82016       36.79317
H         82.71957       96.06268       35.94036
H         84.74880       96.67695       34.56249
H         85.68697       95.41636       35.45784
N         84.53889       92.30002       35.48726
C         85.47691       91.21912       35.25297
H         86.40012       91.39931       35.83034
H         85.02687       90.26073       35.59311
H         85.73001       91.10252       34.17828
H         84.02913       92.30632       36.37974
Ca        85.98114       98.04102       39.83595
O         85.52289      100.68646       37.50957
H         84.58712      100.74469       37.19139
H         85.99862      101.40239       37.01792
O         85.96757      100.44431       41.58454
H         85.47237      100.45532       42.44056
H         86.55299      101.24173       41.62300

Ca 1.70



