%chk=loop1.cluster71.chk
%nprocshared=48
%mem=10GB
%nosave
#b3lyp/svp scf=(tight,noincore) Test 
#IOP(5/87=12) Density=Current Pop=(MK,readradii) iop(6/33=2) iop(6/42=6)

loop1.cluster71 

   0  1 
C         38.98494       41.94154       41.20731
C         40.16295       42.38346       40.38471
O         40.74713       41.55911       39.69646
H         38.17778       41.57942       40.53454
H         39.28010       41.11880       41.88990
H         38.57831       42.77984       41.80975
N         40.53001       43.70263       40.36254
C         41.61536       44.23551       39.53283
C         41.36981       43.99112       38.03675
O         42.27573       44.18523       37.23404
C         42.96971       43.68236       40.03600
C         44.13334       44.48062       39.50995
O         44.19810       45.80686       39.74383
O         45.03454       43.93042       38.89888
H         39.99896       44.37203       40.93746
H         41.64649       45.33509       39.69513
H         43.08331       42.60411       39.78859
H         42.99973       43.78684       41.14176
N         40.15564       43.55059       37.59749
C         39.87350       43.13771       36.23221
C         39.97855       44.29936       35.25674
O         40.70953       44.20322       34.28318
C         38.45871       42.50843       36.17059
C         38.35734       41.22360       37.03251
C         36.99551       40.53280       36.87764
C         35.87849       41.22086       37.68244
N         34.55867       40.70385       37.30703
H         39.38752       43.47253       38.27646
H         40.59299       42.34228       35.92979
H         38.24983       42.22608       35.11593
H         37.69545       43.25074       36.48818
H         38.54858       41.41049       38.10950
H         39.13949       40.52372       36.67073
H         37.07089       39.49070       37.26332
H         36.75023       40.47688       35.79654
H         35.87853       42.32155       37.53908
H         36.07250       41.02370       38.76213
H         34.59373       39.68844       37.05898
H         33.89116       40.83575       38.10071
H         34.20280       41.24316       36.48355
N         39.22505       45.41690       35.45043
C         39.21951       46.54821       34.51994
C         40.50259       47.36758       34.53345
O         40.70230       48.14056       33.60829
C         38.03471       47.48207       34.87049
C         36.70167       47.00136       34.35187
O         35.59177       47.71055       34.62939
O         36.61955       46.01308       33.63810
H         38.60706       45.44551       36.27301
H         39.09827       46.16664       33.47987
H         38.18876       48.48864       34.45146
H         37.98933       47.61220       35.97432
N         41.40012       47.29123       35.55141
C         42.62228       48.08231       35.60379
C         42.46317       49.58543       35.83532
O         43.48379       50.22603       36.04010
H         41.23367       46.62217       36.31513
H         43.22280       47.92368       34.67878
H         43.22161       47.69915       36.45555
N         41.25145       50.22664       35.84182
C         41.14990       51.68577       35.97439
C         40.69278       52.10942       37.34367
O         39.71993       51.57737       37.85991
C         40.15897       52.30266       34.97387
C         40.57141       52.05143       33.56952
O         40.81726       52.98487       32.82189
O         40.63416       50.77362       33.14829
H         40.38430       49.69288       35.69971
H         42.13255       52.16756       35.76844
H         40.10529       53.40276       35.15174
H         39.14268       51.87827       35.12370
N         41.28000       53.20060       37.91196
C         40.79691       53.85319       39.11285
C         41.08749       53.15239       40.41796
O         41.09664       53.83477       41.43379
H         42.02802       53.68197       37.38904
H         39.71257       54.08358       39.03417
H         41.31632       54.83543       39.17007
N         41.27841       51.80144       40.50529
C         41.48475       51.14124       41.79058
C         40.37297       51.44391       42.78606
O         39.30893       51.92466       42.40951
C         41.69579       49.61028       41.63389
C         40.50853       48.88698       40.97278
O         42.85380       49.38552       40.87242
H         41.28384       51.23223       39.65477
H         42.41318       51.57543       42.22609
H         41.83451       49.18397       42.65631
H         43.26206       48.54367       41.20632
H         39.58004       49.01644       41.56597
H         40.32502       49.25349       39.94160
H         40.72902       47.80028       40.90207
N         40.60824       51.23971       44.10939
C         39.68915       51.61131       45.17926
C         40.33355       52.59981       46.16558
O         39.67015       53.00747       47.10485
C         39.25772       50.33994       45.95433
C         40.48879       49.62458       46.57690
C         38.43020       49.41239       45.04974
C         40.09528       48.59271       47.62463
H         41.51606       50.82449       44.37008
H         38.77871       52.10668       44.76809
H         38.59658       50.66530       46.78811
H         41.10468       50.37419       47.11545
H         41.13317       49.15194       45.80297
H         38.98589       49.14837       44.12570
H         38.15589       48.47753       45.57596
H         37.48631       49.92392       44.76104
H         41.00337       48.27288       48.17734
H         39.39082       49.04978       48.35248
H         39.62774       47.70488       47.15711
N         41.63355       53.00273       46.01441
C         42.31921       53.87809       46.96193
C         43.69803       53.32900       47.31650
O         44.15445       52.36889       46.71635
C         42.50837       55.27278       46.31456
C         43.27277       55.18800       44.96652
O         41.24984       55.89470       46.18140
H         42.16607       52.69911       45.19580
H         41.73371       53.99066       47.90219
H         43.11321       55.91293       46.99270
H         41.06022       56.08297       45.22691
H         44.25373       54.68118       45.08925
H         42.68311       54.62842       44.20912
H         43.45613       56.20437       44.56723
N         44.44885       53.99233       48.24197
C         45.87219       53.75159       48.45042
C         46.08769       53.28890       49.87910
O         46.53373       52.16998       50.08733
C         46.61650       55.07384       48.09829
C         48.13463       54.98361       48.22146
O         46.15766       56.13196       48.90204
H         44.00601       54.75623       48.77193
H         46.24346       52.95262       47.76923
H         46.37225       55.30261       47.03275
H         46.17858       56.95928       48.35464
H         48.43507       54.62723       49.22841
H         48.54200       54.30760       47.44256
H         48.56669       55.99691       48.06733
N         45.70427       54.08989       50.91165
C         45.69099       53.64515       52.29672
C         44.78049       54.53900       53.13095
O         44.35648       55.59222       52.68112
C         47.12715       53.50550       52.87815
C         47.97946       54.79096       53.01367
C         47.52120       55.72943       54.14536
C         48.58678       56.78886       54.47055
N         48.16693       57.62100       55.59844
H         45.29415       54.99780       50.68788
H         45.20804       52.64295       52.30807
H         47.69363       52.81451       52.21880
H         47.08502       53.01475       53.87552
H         48.05310       55.33575       52.04693
H         49.00171       54.44366       53.28309
H         47.36270       55.12368       55.06327
H         46.57485       56.23845       53.87915
H         48.77956       57.43221       53.58420
H         49.53574       56.27469       54.74389
H         47.31533       58.17231       55.34576
H         47.96261       57.02032       56.42668
H         48.94026       58.27512       55.85683
N         44.42903       54.14747       54.37982
C         43.63248       54.99637       55.25796
C         42.20733       55.34727       54.79375
O         41.74176       56.38652       55.24280
C         43.58524       54.41892       56.68835
C         44.98219       54.23857       57.32294
C         45.71880       55.52342       57.59754
O         46.85267       55.47521       58.04446
O         45.13737       56.72282       57.39605
H         44.77739       53.24288       54.72230
H         44.16977       55.96714       55.30331
H         43.08377       53.42800       56.63751
H         42.98032       55.07756       57.34925
H         45.61704       53.59910       56.67763
H         44.86850       53.71239       58.29264
N         41.40299       54.60564       53.96461
C         41.68710       53.31464       53.37213
H         42.64776       52.87320       53.65079
H         40.90546       52.59538       53.69521
H         41.63229       53.40780       52.26608
H         40.46939       54.99242       53.75167
Ca        41.05488       49.69306       31.20935
O         39.15968       50.41222       29.32896
H         38.25193       50.03724       29.21105
H         39.21904       51.15703       28.68110
O         41.96706       49.12540       28.56549
H         41.99798       48.43334       27.85926
H         42.86176       49.54881       28.54666
O         42.78553       46.83936       31.47279
H         43.71630       46.82829       31.80937
H         42.68028       45.97064       31.01050
O         39.95983       46.99736       30.02142
H         38.98992       46.82483       29.92682
H         40.33477       46.13260       30.32315
O         42.02687       52.11577       30.10297
H         41.97764       51.94667       31.07285
H         42.10188       53.09841       30.04512
O         43.78252       49.62463       31.49420
H         44.00552       49.54210       32.45503
H         44.60298       49.96848       31.06327
O         38.39585       49.27679       32.02951
H         37.67094       48.87589       31.49084
H         37.93232       49.80429       32.72614

Ca 1.70



