%chk=loop4.cluster18.chk
%nprocshared=48
%mem=10GB
%nosave
#b3lyp/svp scf=(tight,noincore) Test 
#IOP(5/87=12) Density=Current Pop=(MK,readradii) iop(6/33=2) iop(6/42=6)

loop4.cluster18 

   -3  1 
C         76.80466       23.78672       61.27750
C         78.00056       23.28331       62.02508
O         79.10579       23.76392       61.81364
H         76.04033       24.12850       62.00824
H         77.07008       24.63135       60.61005
H         76.36670       22.96227       60.67719
N         77.82900       22.31449       62.96041
C         78.88762       21.76478       63.79388
C         79.52895       22.84444       64.63708
O         80.74373       22.95250       64.69918
C         79.86046       20.88926       62.98966
C         79.06634       19.96971       62.11312
O         79.36262       19.88291       60.81510
O         78.14143       19.31354       62.56648
H         76.87339       21.95678       63.11930
H         78.39329       21.07272       64.51155
H         80.48902       20.29780       63.69064
H         80.52857       21.49845       62.34850
N         78.70811       23.68469       65.32771
C         79.17200       24.68813       66.27520
C         78.43313       24.40052       67.58397
O         77.21639       24.29912       67.54001
C         78.80378       26.13606       65.81454
C         79.23489       26.44904       64.35830
C         79.44188       27.13789       66.79988
C         78.83375       27.86663       63.91586
H         77.69192       23.58478       65.19495
H         80.27552       24.63776       66.37534
H         77.69677       26.24966       65.84417
H         78.71441       25.73900       63.68212
H         80.33090       26.32303       64.22451
H         79.16481       28.18364       66.57476
H         79.09668       26.94830       67.83552
H         80.54980       27.04634       66.76529
H         79.02606       28.00088       62.83190
H         77.75321       28.04573       64.10749
H         79.42628       28.63979       64.44762
N         79.04219       24.29477       68.79760
C         80.46095       24.49973       69.04576
C         81.24784       23.24265       68.70653
O         82.42346       23.33813       68.38840
C         80.66347       24.93804       70.51119
C         79.93884       26.23600       70.81493
O         78.72879       26.32491       70.67002
O         80.62680       27.30117       71.26541
H         78.42685       24.12547       69.61032
H         80.83560       25.33969       68.42446
H         81.74521       25.08254       70.71511
H         80.27875       24.14498       71.18796
N         80.62542       22.02767       68.70474
C         81.22620       20.81091       68.19402
C         82.47168       20.35762       68.90633
O         82.54476       20.41687       70.12586
H         79.64644       21.96287       69.01440
H         81.44203       20.94592       67.11214
H         80.48238       19.99252       68.28098
N         83.46710       19.79406       68.16629
C         84.70383       19.26229       68.72118
C         85.91187       20.02344       68.18281
O         87.02438       19.73557       68.60349
C         84.77512       17.73813       68.42178
C         84.98486       17.36218       66.97125
O         84.23671       17.77587       66.10094
O         85.96725       16.50197       66.64203
H         83.32178       19.71847       67.15089
H         84.69901       19.38043       69.82728
H         83.81897       17.28263       68.75896
H         85.59235       17.27051       69.01260
N         85.76811       20.99093       67.22132
C         86.88287       21.69366       66.61886
C         87.20760       21.14251       65.23904
O         88.09567       21.67768       64.59417
H         84.84098       21.20100       66.83027
H         87.80380       21.59317       67.23084
H         86.62943       22.77645       66.57784
N         86.56774       20.03109       64.75001
C         86.96030       19.31920       63.53337
C         86.89638       20.19875       62.31032
O         87.88969       20.35870       61.60795
C         88.35236       18.68923       63.69039
C         88.42803       17.67556       64.83671
C         89.83956       17.17351       65.02826
N         90.13177       16.35968       66.06493
O         90.73095       17.51717       64.26357
H         85.79971       19.61594       65.28876
H         86.23718       18.48806       63.37102
H         89.09132       19.49803       63.87192
H         88.62151       18.16408       62.74725
H         87.74822       16.81743       64.63115
H         88.10565       18.16471       65.77984
H         89.39886       16.07562       66.73049
H         91.09960       16.03719       66.21097
N         85.73394       20.80958       61.98944
C         85.61710       21.65499       60.81098
C         85.67295       20.85084       59.52529
O         85.50125       19.63728       59.55506
C         84.32906       22.50982       60.85336
C         83.04760       21.66137       60.99478
C         84.42633       23.52501       61.99956
H         84.93991       20.69336       62.63315
H         86.48797       22.35110       60.80229
H         84.26702       23.07802       59.89938
H         83.00613       20.85763       60.23058
H         82.96728       21.18688       61.99546
H         82.15826       22.30981       60.87051
H         85.34060       24.14562       61.87531
H         83.54445       24.19592       61.99933
H         84.48941       23.01125       62.98307
N         85.94677       21.48192       58.34789
C         85.99298       20.79157       57.06689
C         85.24451       21.60155       56.03544
O         85.62426       22.74806       55.81694
C         87.46284       20.64355       56.61875
C         87.66484       19.90230       55.30828
N         86.80309       18.94342       54.88134
O         88.65119       20.15875       54.63475
H         86.18154       22.48893       58.37273
H         85.55023       19.78300       57.17512
H         88.04663       20.11912       57.40397
H         87.91776       21.65713       56.52139
H         85.97300       18.67446       55.42293
H         86.97618       18.45255       53.99280
N         84.18022       21.09508       55.34085
C         83.53537       21.90585       54.31469
C         82.15287       21.38892       53.92536
O         81.81365       21.37386       52.75048
C         84.47110       21.95876       53.07969
C         84.38316       23.24753       52.32165
C         84.97630       24.39929       52.86439
C         83.78091       23.30683       51.05867
C         84.98750       25.59149       52.14353
C         83.77829       24.50770       50.34353
C         84.39404       25.65049       50.87981
O         84.42965       26.80303       50.18326
H         83.83128       20.14748       55.55516
H         83.37588       22.90947       54.77084
H         84.27935       21.06756       52.43982
H         85.54029       21.86207       53.36514
H         85.46050       24.36235       53.83146
H         83.31899       22.42666       50.62966
H         85.47241       26.46471       52.56195
H         83.31168       24.54648       49.36845
H         84.05711       26.86777       49.29297
N         81.29378       20.94649       54.88255
C         79.94763       20.47885       54.56116
C         79.11592       21.61914       53.97504
O         78.58106       21.42015       52.89275
C         79.33119       19.73038       55.76006
C         80.09418       18.40139       55.96382
C         79.73012       17.71425       57.23141
O         79.71158       18.45757       58.34105
O         79.98062       16.52408       57.33912
H         81.61074       20.92675       55.86342
H         80.00771       19.70060       53.76476
H         78.26772       19.48038       55.56024
H         79.38420       20.35199       56.67369
H         81.18703       18.58416       56.01919
H         79.89688       17.72572       55.10260
N         79.02416       22.87391       54.51879
C         79.52664       23.27969       55.82759
C         80.71081       24.23088       55.73665
O         81.12708       24.60280       54.64768
C         78.39358       24.01971       56.57049
C         77.07993       23.24610       56.70810
C         77.23739       22.00297       57.52316
O         76.81901       20.93897       57.10018
O         77.81840       22.06000       58.73557
H         78.53858       23.59479       53.96144
H         79.86329       22.41466       56.41490
H         78.16552       24.95561       56.01199
H         78.72827       24.31432       57.58687
H         76.65294       23.00496       55.70857
H         76.36501       23.91242       57.23244
N         81.29368       24.67485       56.88947
C         82.36931       25.64079       56.90736
H         83.24817       25.25948       56.34909
H         82.02304       26.60183       56.47057
H         82.67126       25.83225       57.96124
H         80.94939       24.32458       57.79526
Ca        77.86028       19.17278       59.33957
O         77.55408       16.65530       60.31056
H         77.35288       15.95926       59.63709
H         76.67803       16.87831       60.71508
O         76.60005       17.82024       56.97554
H         76.16374       16.94899       57.14734
H         75.93455       18.33869       56.45782

Ca 1.70



