%chk=loop4.cluster116.chk
%nprocshared=48
%mem=10GB
%nosave
#b3lyp/svp scf=(tight,noincore) Test 
#IOP(5/87=12) Density=Current Pop=(MK,readradii) iop(6/33=2) iop(6/42=6)

loop4.cluster116 

   -3  1 
C         44.76856       55.38080       60.90727
C         45.19693       55.22656       62.33581
O         46.14724       54.50641       62.58420
H         43.90170       56.06660       60.81558
H         45.61172       55.81155       60.32213
H         44.50374       54.39337       60.47867
N         44.57875       55.93112       63.32872
C         45.05928       55.99069       64.70790
C         46.52229       56.41139       64.73653
O         47.36606       55.75356       65.32232
C         44.56402       54.81368       65.58388
C         44.93760       53.42502       65.16964
O         44.07794       52.65852       64.76397
O         46.18461       52.97515       65.36537
H         43.80145       56.55728       63.06998
H         44.53897       56.84931       65.18888
H         43.45254       54.87375       65.56732
H         44.87435       54.96863       66.64158
N         46.83015       57.59945       64.13688
C         48.12203       58.28527       64.13826
C         48.66371       58.38181       65.55092
O         49.81910       58.06295       65.80388
C         49.10040       57.78615       63.02670
C         50.10800       58.92875       62.71248
C         48.31502       57.39936       61.75582
C         51.19209       58.57081       61.70073
H         46.04928       58.12499       63.71936
H         47.86411       59.32631       63.84374
H         49.63681       56.87825       63.36524
H         50.62358       59.23672       63.64525
H         49.55063       59.80888       62.31975
H         48.97583       57.09123       60.92377
H         47.67642       56.51995       61.96656
H         47.66986       58.23831       61.41970
H         51.85853       59.44702       61.55633
H         51.79468       57.73171       62.09190
H         50.77426       58.31285       60.70716
N         47.81156       58.74136       66.54639
C         48.13068       58.67225       67.96125
C         47.55137       57.37645       68.49877
O         46.33651       57.22852       68.46201
C         47.60852       59.92254       68.71850
C         46.12838       60.21993       68.57052
O         45.33701       60.25402       69.65879
O         45.65370       60.49723       67.48034
H         46.83345       58.91033       66.27801
H         49.21767       58.66175       68.10349
H         48.16311       60.81359       68.35797
H         47.83481       59.79116       69.79915
N         48.32195       56.33669       68.94574
C         49.78078       56.30658       68.99343
C         50.34274       57.11778       70.14653
O         49.84726       56.96446       71.25325
H         47.83613       55.46907       69.21993
H         50.20569       56.53442       67.99816
H         50.08010       55.26188       69.21933
N         51.39958       57.97647       70.01152
C         52.09469       58.22524       68.74869
C         52.84360       56.99537       68.23713
O         53.07088       56.07547       69.01138
C         52.99037       59.48415       68.85775
C         54.00646       59.44265       69.96663
O         53.73491       60.04701       71.14099
O         55.13407       59.03050       69.74989
H         51.70072       58.49012       70.85397
H         51.32206       58.47469       68.01391
H         52.30649       60.33378       69.06973
H         53.49928       59.73266       67.90453
N         53.24017       56.86817       66.93279
C         53.00975       57.85820       65.88536
C         54.30416       58.42224       65.35658
O         54.25932       59.25331       64.46006
H         53.73632       56.00448       66.65728
H         52.40289       58.71526       66.21846
H         52.45359       57.37377       65.05478
N         55.50329       58.05825       65.89557
C         56.76646       58.61163       65.43669
C         57.18840       58.07408       64.08234
O         58.12404       58.61524       63.51142
C         57.83917       58.41075       66.51982
C         58.24363       56.93973       66.75537
C         59.00574       56.76068       68.04867
N         59.52530       55.55409       68.36496
O         59.13799       57.69493       68.82717
H         55.51493       57.42894       66.70659
H         56.62807       59.71255       65.34209
H         57.39884       58.83710       67.44817
H         58.75496       58.99225       66.27680
H         58.86495       56.61229       65.89739
H         57.36279       56.26708       66.80986
H         59.43094       54.75737       67.71895
H         60.03014       55.42437       69.25436
N         56.54984       57.01010       63.50330
C         56.83549       56.59223       62.13867
C         57.55507       55.25629       62.12444
O         57.11631       54.32132       62.77902
C         55.53806       56.55004       61.28523
C         55.89891       56.40840       59.79969
C         54.70486       57.82674       61.46011
H         55.81828       56.50029       64.01992
H         57.49014       57.34363       61.64836
H         54.89984       55.68999       61.59308
H         56.47652       55.48251       59.60735
H         54.98020       56.38075       59.19311
H         56.49425       57.28375       59.46094
H         53.83188       57.82107       60.77536
H         54.30740       57.87071       62.48925
H         55.31389       58.73369       61.26005
N         58.67490       55.11954       61.35158
C         59.47703       53.90512       61.17988
C         58.82112       52.77987       60.38481
O         59.56099       51.97927       59.82152
C         60.06327       53.39043       62.50557
C         60.85043       54.47222       63.19669
N         60.49101       54.90544       64.42593
O         61.81759       54.96792       62.63740
H         59.00598       55.95167       60.84242
H         60.33890       54.21430       60.54512
H         60.74198       52.53114       62.30850
H         59.24470       53.02593       63.16044
H         59.67808       54.49739       64.90993
H         61.02535       55.65529       64.88858
N         57.46946       52.62347       60.28516
C         56.85031       51.50457       59.57577
C         55.35136       51.61848       59.50526
O         54.75534       52.20974       60.39484
C         57.21420       50.13173       60.21248
C         57.31164       50.16922       61.72990
C         56.18017       50.20607       62.56932
C         58.59033       50.18924       62.31124
C         56.34378       50.26767       63.96504
C         58.74845       50.27144       63.69027
C         57.62861       50.31081       64.52496
O         57.78141       50.39265       65.86263
H         56.85204       53.30484       60.73182
H         57.19827       51.53358       58.51926
H         58.21529       49.86785       59.82062
H         56.55116       49.30804       59.86474
H         55.18142       50.17981       62.15373
H         59.47301       50.16890       61.68754
H         55.47583       50.28941       64.61354
H         59.74668       50.31212       64.10679
H         58.66054       50.43595       66.26881
N         54.68210       50.95334       58.50780
C         53.23117       50.80544       58.38541
C         52.46654       52.03555       57.90856
O         51.70126       51.91513       56.96058
C         52.62743       50.18889       59.66186
C         53.08807       48.73069       59.80314
C         52.53539       48.10989       61.04688
O         51.70894       47.21528       60.97034
O         52.96455       48.52337       62.25391
H         55.25410       50.42470       57.82937
H         53.04126       50.06534       57.57529
H         51.51981       50.17694       59.57287
H         52.87639       50.78580       60.56218
H         54.19519       48.64519       59.82266
H         52.71570       48.17289       58.91423
N         52.54962       53.22118       58.55222
C         51.72017       54.36400       58.21680
C         52.21137       54.98926       56.93229
O         51.42515       55.19848       56.01905
C         51.78306       55.39390       59.36351
C         51.50921       54.80722       60.75974
C         50.13694       54.31364       61.06094
O         49.82159       54.22183       62.36156
O         49.37604       53.91793       60.19200
H         53.19547       53.31802       59.32605
H         50.65919       54.04939       58.12097
H         51.08590       56.23765       59.16838
H         52.80755       55.80723       59.41824
H         51.71107       55.60860       61.49065
H         52.20954       53.99940       61.05234
N         53.52355       55.33974       56.81752
C         54.07408       55.99297       55.65250
H         55.05771       55.53893       55.40782
H         53.41222       55.90201       54.76728
H         54.23484       57.06509       55.89131
H         54.15902       55.15374       57.60405
Ca        48.27041       53.51992       63.80098
O         50.78713       52.19414       64.13368
H         51.03212       51.25084       63.97010
H         51.57672       52.58652       64.58214
O         50.69828       54.92599       65.13208
H         50.91265       55.19812       64.20802
H         50.24106       55.70887       65.51799
O         47.66424       51.59147       61.98139
H         47.48254       50.92963       61.27324
H         48.09806       52.33784       61.50277
O         48.99026       53.30572       66.74078
H         48.19448       53.41198       67.31902
H         49.71083       53.01080       67.35172
O         48.17190       50.82585       65.18582
H         47.51244       50.11041       65.36583
H         48.88947       50.67962       65.85186

Ca 1.70



