%chk=loop2.cluster174.chk
%nprocshared=48
%mem=10GB
%nosave
#b3lyp/svp scf=(tight,noincore) Test 
#IOP(5/87=12) Density=Current Pop=(MK,readradii) iop(6/33=2) iop(6/42=6)

loop2.cluster174 

   -2  1 
C         76.34814       42.57554       39.63061
C         75.50692       43.15024       38.53182
O         74.35135       43.47661       38.76511
H         77.24504       43.20905       39.78672
H         75.77224       42.51591       40.57850
H         76.66990       41.55007       39.34746
N         76.02010       43.26123       37.27567
C         75.21457       43.72398       36.15267
C         74.85068       45.19284       36.28061
O         75.72279       46.03402       36.16174
C         75.88029       43.41539       34.78428
C         77.24616       44.01674       34.53583
O         78.30344       43.65649       35.28847
O         77.41458       44.77667       33.59568
H         76.98024       42.92922       37.11633
H         74.27756       43.12595       36.15358
H         75.18629       43.76147       33.98604
H         75.98057       42.31413       34.68762
N         73.55262       45.56285       36.49172
C         73.08793       46.95278       36.45019
C         73.04436       47.56284       37.84637
O         73.24518       46.82788       38.80421
C         71.66553       46.92177       35.85995
H         72.84578       44.81654       36.58276
H         73.75387       47.53872       35.78584
H         71.66667       46.34513       34.91313
H         70.97293       46.42081       36.57397
H         71.24371       47.90634       35.62382
N         72.74637       48.87865       38.09065
C         72.62177       49.95316       37.10835
C         73.98724       50.23741       36.52269
O         74.89870       50.54588       37.27526
C         72.08624       51.23648       37.79577
C         70.78042       51.03100       38.52080
O         70.50749       51.77520       39.60973
O         70.02577       50.12308       38.20601
H         72.63319       49.14796       39.06687
H         71.88676       49.70827       36.33235
H         71.95000       52.05574       37.05783
H         72.82222       51.59469       38.54228
N         74.21488       50.15571       35.18527
C         75.54867       50.34147       34.63883
C         76.26145       49.01163       34.64062
O         75.77830       48.11601       33.96198
H         73.44109       49.91288       34.54928
H         76.05517       51.16758       35.16677
H         75.47057       50.67345       33.58360
N         77.37511       48.73398       35.38019
C         78.10474       49.64178       36.27014
C         77.92408       49.22628       37.73287
O         78.61017       49.76358       38.59123
C         79.59629       49.54338       35.86933
C         79.80370       50.14682       34.50436
N         79.97695       49.36132       33.41618
O         79.78158       51.36175       34.37721
H         77.72922       47.76296       35.33062
H         77.79329       50.69757       36.19834
H         79.89570       48.46923       35.87395
H         80.27126       50.06100       36.58590
H         79.95336       48.33454       33.49758
H         80.09090       49.78648       32.48390
N         77.03437       48.25160       38.08405
C         77.01454       47.62800       39.39590
C         76.51651       48.45917       40.56006
O         76.76756       48.06083       41.68847
H         76.43045       47.84686       37.36812
H         78.04373       47.26934       39.60870
H         76.36499       46.72614       39.35658
N         75.75754       49.57911       40.39319
C         75.19414       50.30089       41.53443
C         73.95743       49.59084       42.02866
O         73.13228       49.19540       41.23108
C         74.85333       51.75920       41.18770
C         74.37680       52.51645       42.44337
O         76.00521       52.38172       40.68459
H         75.50739       49.87934       39.44584
H         75.95865       50.35927       42.34175
H         74.05182       51.76590       40.41937
H         75.70540       53.21270       40.23373
H         75.17267       52.51269       43.22081
H         74.13217       53.56669       42.18913
H         73.46386       52.05505       42.87671
N         73.75625       49.41469       43.35210
C         72.63807       48.64802       43.88042
C         71.77056       49.44785       44.84059
O         72.27421       50.25169       45.61179
C         73.17628       47.38230       44.58492
C         73.69926       46.30890       43.59208
C         74.31361       47.75106       45.56888
C         72.66161       45.82601       42.57410
H         74.44665       49.80752       44.00640
H         71.94896       48.31735       43.07786
H         72.32206       46.93707       45.14386
H         74.00756       45.42759       44.19346
H         74.58226       46.67941       43.02946
H         74.58819       46.92226       46.23601
H         75.23835       48.00539       45.00659
H         74.04311       48.61849       46.20258
H         71.74007       45.53634       43.09934
H         72.41713       46.60123       41.81998
H         73.05336       44.94532       42.02306
N         70.42791       49.20899       44.86504
C         69.49997       49.82516       45.81174
C         68.49464       48.80213       46.32578
O         68.46006       47.68883       45.83552
C         68.78924       51.01615       45.14017
C         68.42976       50.74580       43.70719
O         68.96051       51.40401       42.82732
O         67.57467       49.75714       43.38243
H         70.03765       48.54977       44.17288
H         70.04342       50.20670       46.70483
H         69.50126       51.86806       45.13925
H         67.89066       51.33290       45.71224
N         67.64833       49.12955       47.34430
C         66.61687       48.22958       47.86873
C         67.18885       46.88167       48.31312
O         68.18991       46.87533       49.02282
C         65.88941       48.93271       49.04200
C         64.79630       48.08783       49.65092
C         65.10738       47.14667       50.64782
C         63.46363       48.22823       49.22757
C         64.10224       46.35579       51.20858
C         62.46162       47.42843       49.78768
C         62.78084       46.49416       50.77752
H         67.73823       50.06923       47.76155
H         65.86549       48.07422       47.06818
H         65.44743       49.87768       48.65462
H         66.60696       49.22565       49.84008
H         66.12789       47.03009       50.99042
H         63.20583       48.94408       48.45704
H         64.34911       45.63478       51.97702
H         61.43758       47.53128       49.45321
H         62.00447       45.87753       51.21116
N         66.56780       45.68637       48.01149
C         67.10315       44.39730       48.40375
C         68.27107       43.95388       47.52462
O         68.85873       42.92002       47.79736
C         65.95169       43.40561       48.17077
C         64.83562       44.18139       47.46323
C         65.34261       45.59979       47.24529
H         67.40036       44.40484       49.47599
H         66.23518       42.48594       47.61088
H         65.56462       43.07233       49.15883
H         64.44092       43.70851       46.53788
H         63.99214       44.23964       48.18863
H         65.58000       45.79257       46.17680
H         64.55657       46.30046       47.58749
N         68.56375       44.62753       46.37794
C         69.49714       44.11519       45.38113
C         70.94609       44.21488       45.81701
O         71.80422       43.68501       45.11999
C         69.22806       44.80869       44.02619
C         67.78640       44.50219       43.56969
C         67.44525       45.07870       42.23617
O         66.34028       45.83552       42.10636
O         68.11580       44.80642       41.25362
H         68.00918       45.44675       46.13978
H         69.28022       43.03507       45.22581
H         69.91129       44.38883       43.26093
H         69.40133       45.90624       44.10824
H         67.04183       44.88712       44.29634
H         67.66770       43.40190       43.50601
N         71.30430       44.83847       46.97415
C         72.66826       44.83172       47.44427
H         73.32403       45.29507       46.69492
H         72.74229       45.38877       48.40208
H         73.00757       43.78755       47.60575
H         70.59732       45.31739       47.54986
Ca        68.03231       50.62755       40.41399
O         66.59272       50.30005       38.09880
H         66.91144       50.04619       37.19782
H         65.80569       49.72357       38.26506
O         66.70072       48.13376       40.31608
H         67.14747       47.89997       41.16696
H         65.77366       48.36449       40.57567
O         69.97683       48.51352       41.13498
H         70.71693       49.06975       40.78902
H         70.06291       47.65758       40.64640

Ca 1.70



