%chk=loop2.cluster101.chk
%nprocshared=48
%mem=10GB
%nosave
#b3lyp/svp scf=(tight,noincore) Test 
#IOP(5/87=12) Density=Current Pop=(MK,readradii) iop(6/33=2) iop(6/42=6)

loop2.cluster101 

   -2  1 
C         58.85716       54.00032       16.46596
C         59.84469       53.94871       15.33185
O         60.99459       54.32313       15.50866
H         57.88023       53.55563       16.17009
H         59.24730       53.38722       17.30725
H         58.68669       55.03968       16.80228
N         59.46251       53.40979       14.14739
C         60.40874       52.97574       13.12802
C         60.79960       54.04562       12.10515
O         59.95209       54.82733       11.69916
C         59.69897       51.85258       12.35525
C         60.59873       51.01454       11.54735
O         61.91302       50.98076       11.82630
O         60.11386       50.20802       10.77301
H         58.49099       53.06443       14.08461
H         61.30008       52.53758       13.63553
H         58.91138       52.29759       11.70892
H         59.22319       51.13687       13.05719
N         62.04547       54.02118       11.53853
C         62.44721       54.83640       10.38950
C         63.16365       54.00841        9.28293
O         63.65444       54.60575        8.33460
C         63.33501       55.96768       10.91551
H         62.74746       53.38857       11.93569
H         61.56903       55.33010        9.91912
H         63.66922       56.63053       10.08969
H         62.73775       56.58883       11.62130
H         64.21805       55.57015       11.45723
N         63.28442       52.64207        9.35973
C         64.05422       51.80782        8.41864
C         63.35850       50.51690        7.94272
O         63.75782       49.98401        6.91652
C         65.39662       51.41846        9.07602
C         65.26132       50.99746       10.52163
O         64.50947       49.95057       10.90210
O         65.80555       51.66661       11.38469
H         62.90185       52.18251       10.17557
H         64.29635       52.38478        7.49871
H         66.03474       52.32751        9.07638
H         65.92137       50.64195        8.47822
N         62.38389       49.91345        8.67256
C         61.75414       48.65065        8.31248
C         62.70488       47.47612        8.37923
O         62.84521       46.76480        7.39565
H         62.07615       50.35734        9.52683
H         61.27720       48.73014        7.31249
H         60.94977       48.43232        9.04889
N         63.36076       47.19224        9.54039
C         64.20750       46.01892        9.72440
C         63.72000       45.12580       10.87254
O         64.43951       44.21282       11.25862
C         65.66969       46.45454        9.90448
C         66.00162       47.18388       11.16782
N         67.28143       47.51042       11.41163
O         65.14142       47.46217       11.98582
H         63.25770       47.83443       10.32928
H         64.21239       45.38967        8.81078
H         65.96613       47.09335        9.04399
H         66.30181       45.54194        9.89297
H         68.02632       47.27952       10.73868
H         67.51764       47.96942       12.28713
N         62.47709       45.28400       11.42033
C         61.93682       44.38843       12.43263
C         62.52018       44.53148       13.82918
O         62.07973       43.80383       14.70370
H         61.84164       45.99323       11.02982
H         62.05397       43.33747       12.08787
H         60.84732       44.58644       12.53024
N         63.50112       45.43737       14.11978
C         64.06785       45.56960       15.46432
C         63.98576       46.98665       15.97993
O         63.78913       47.90669       15.20607
C         65.57033       45.17041       15.46127
C         65.75034       43.68024       15.21223
O         66.30434       45.87030       14.48243
H         63.87041       46.03425       13.37861
H         63.51972       44.93574       16.19187
H         66.00858       45.36878       16.46587
H         66.18298       46.84305       14.62995
H         65.15357       43.09484       15.94302
H         65.43990       43.41820       14.17982
H         66.82259       43.42057       15.34510
N         64.29434       47.22090       17.29372
C         64.61615       48.55593       17.76681
C         66.12151       48.65111       17.73699
O         66.78639       47.86168       18.39270
C         64.10981       48.85912       19.20432
C         62.66655       48.35559       19.41621
C         64.24666       50.38252       19.43977
C         62.13002       48.62455       20.82362
H         64.49718       46.42114       17.90753
H         64.16265       49.30484       17.08473
H         64.74098       48.31817       19.94718
H         62.66793       47.25068       19.28809
H         61.98239       48.79876       18.66414
H         63.63124       50.94197       18.70050
H         63.93619       50.68211       20.45805
H         65.30154       50.70539       19.31993
H         62.00275       49.71098       21.00203
H         61.13507       48.14572       20.93150
H         62.81229       48.20034       21.59236
N         66.72716       49.57872       16.95376
C         68.17544       49.68519       16.88897
C         68.66665       50.49595       18.05980
O         67.86988       51.11345       18.73670
C         68.62501       50.36565       15.58891
C         68.11083       49.67189       14.37437
O         66.78842       49.62260       14.11914
O         68.90203       49.18699       13.58709
H         66.15000       50.21692       16.40189
H         68.61300       48.66186       16.92116
H         69.73485       50.35685       15.55041
H         68.27873       51.41493       15.54818
N         69.98842       50.52044       18.36396
C         70.50866       51.30557       19.47763
C         70.32244       52.81038       19.24545
O         69.75793       53.43932       20.13461
C         71.93386       50.82431       19.80921
C         72.62494       51.57783       20.91776
C         73.86896       52.17207       20.65876
C         72.07352       51.66710       22.21139
C         74.55550       52.84431       21.66891
C         72.76599       52.34803       23.22147
C         74.00631       52.93380       22.94920
H         70.63054       49.92682       17.82006
H         69.92299       51.04974       20.38936
H         72.56169       50.83565       18.90016
H         71.85399       49.75859       20.12489
H         74.31165       52.10222       19.67334
H         71.11914       51.20943       22.44098
H         75.51754       53.29073       21.45674
H         72.34629       52.41728       24.21729
H         74.54528       53.45393       23.73012
N         70.69611       53.48583       18.10506
C         70.37933       54.89253       17.89475
C         68.87257       55.13809       17.91259
O         68.42976       56.14682       18.43626
C         70.94601       55.19409       16.49842
C         72.03389       54.14341       16.34551
C         71.39037       52.90776       16.97475
H         70.91086       55.50355       18.65828
H         70.18627       54.97341       15.71619
H         71.28746       56.24688       16.37101
H         72.39968       54.00932       15.30415
H         72.88914       54.44381       16.99108
H         70.64011       52.47254       16.27914
H         72.17573       52.17884       17.23246
N         68.03031       54.20727       17.36897
C         66.57279       54.34391       17.35823
C         66.03003       54.48470       18.77325
O         65.12685       55.27863       18.99709
C         65.95254       53.13121       16.61735
C         64.55343       53.39026       16.04504
C         64.26281       52.42148       14.92559
O         64.10279       52.85575       13.79954
O         64.26057       51.08930       15.10468
H         68.44375       53.36183       16.95220
H         66.33541       55.25268       16.76448
H         65.95372       52.22672       17.25952
H         66.59432       52.94056       15.73233
H         64.55340       54.39790       15.57187
H         63.77570       53.37768       16.83524
N         66.60629       53.79454       19.79714
C         66.19906       53.93039       21.17554
H         65.14900       53.59824       21.29853
H         66.85033       53.29312       21.81568
H         66.31685       54.98369       21.50623
H         67.39339       53.17574       19.59831
Ca        64.14541       49.94946       13.14319
O         61.61208       49.80809       14.66508
H         62.05294       50.18959       15.46215
H         60.74232       49.48388       15.00267
O         61.93459       48.15053       12.45107
H         61.72908       48.57399       11.58538
H         61.14383       47.58465       12.61839

Ca 1.70



