%chk=loop4.cluster89.chk
%nprocshared=48
%mem=10GB
%nosave
#b3lyp/svp scf=(tight,noincore) Test 
#IOP(5/87=12) Density=Current Pop=(MK,readradii) iop(6/33=2) iop(6/42=6)

loop4.cluster89 

   -3  1 
C         60.75400       57.88161       80.00540
C         61.62195       56.79689       80.59077
O         62.69552       56.54766       80.06554
H         59.81779       58.01107       80.58864
H         61.30805       58.84469       80.03646
H         60.48588       57.65552       78.95274
N         61.22293       56.13805       81.71955
C         62.04643       55.16091       82.44313
C         63.28325       55.79057       83.06868
O         64.11419       55.05577       83.59279
C         62.40942       53.90876       81.61444
C         61.22711       53.15594       81.08220
O         61.40987       52.12454       80.45956
O         59.97396       53.61726       81.24724
H         60.30472       56.37115       82.12421
H         61.44833       54.78743       83.30367
H         62.96335       53.20601       82.27688
H         63.07040       54.17103       80.76453
N         63.42378       57.14263       83.16339
C         64.50210       57.78752       83.89650
C         63.88438       58.45029       85.11909
O         62.89147       59.15309       84.95872
C         65.20921       58.85086       83.01229
C         65.77177       58.27020       81.68991
C         66.31990       59.58879       83.79026
C         66.74841       57.09712       81.84448
H         62.68788       57.75611       82.77890
H         65.26921       57.05207       84.20431
H         64.45589       59.62133       82.73304
H         66.28648       59.09132       81.14518
H         64.93055       57.92506       81.05359
H         67.14517       58.90645       84.07448
H         66.74167       60.40715       83.17223
H         65.91880       60.05743       84.71421
H         66.23564       56.20693       82.26325
H         67.13627       56.81956       80.84217
H         67.61402       57.35523       82.48630
N         64.40896       58.34667       86.37306
C         65.65134       57.63533       86.69014
C         65.44071       56.12699       86.64429
O         66.37805       55.39982       86.33829
C         66.17571       58.07053       88.07363
C         66.25792       59.57495       88.18601
O         67.14584       60.19308       87.62073
O         65.30397       60.24725       88.86107
H         63.93535       58.86519       87.12697
H         66.43662       57.94195       85.97291
H         67.17978       57.63387       88.27637
H         65.47259       57.70113       88.84669
N         64.20704       55.59527       86.90093
C         63.89095       54.17962       86.80759
C         64.58484       53.33974       87.85128
O         64.82909       53.80718       88.95517
H         63.43063       56.23058       87.13418
H         64.14715       53.80913       85.79064
H         62.79887       54.04311       86.93576
N         64.99018       52.08550       87.51551
C         65.89151       51.27872       88.32585
C         67.27356       51.28744       87.68162
O         68.15875       50.60784       88.18168
C         65.35130       49.82768       88.52697
C         65.05078       49.00198       87.29451
O         65.18874       49.45455       86.17573
O         64.59844       47.74265       87.43635
H         64.76188       51.74972       86.56965
H         66.01558       51.71358       89.34397
H         64.41500       49.87369       89.11959
H         66.09783       49.25804       89.12543
N         67.54045       52.05675       86.57473
C         68.80848       51.99379       85.87468
C         68.81455       50.88973       84.82850
O         69.86397       50.62945       84.25994
H         66.81545       52.65908       86.16283
H         69.62502       51.82335       86.60726
H         69.01484       52.97502       85.39259
N         67.67359       50.19879       84.52117
C         67.60511       49.06403       83.60327
C         68.00137       49.45853       82.19242
O         68.90015       48.87175       81.60486
C         68.39831       47.84462       84.11476
C         67.78297       47.14502       85.34182
C         68.53596       45.86606       85.66351
N         68.08362       45.02677       86.62179
O         69.54791       45.57172       85.04162
H         66.79190       50.50388       84.94054
H         66.54101       48.74325       83.52327
H         69.45377       48.12353       84.31482
H         68.37719       47.08522       83.30344
H         66.73222       46.86879       85.09952
H         67.77239       47.81517       86.22912
H         67.22287       45.23849       87.14533
H         68.59078       44.15048       86.82055
N         67.31350       50.45057       81.57863
C         67.53377       50.85164       80.19425
C         67.09454       49.76095       79.21928
O         65.98996       49.24578       79.32457
C         66.84675       52.22968       79.96534
C         67.74053       53.31939       80.59194
C         66.59553       52.55077       78.48792
H         66.58894       50.93935       82.12715
H         68.62077       51.01942       80.01875
H         65.84878       52.25236       80.45711
H         67.93467       53.11014       81.66608
H         68.72273       53.36055       80.06704
H         67.26201       54.31461       80.50917
H         65.79424       51.88395       78.10088
H         66.23253       53.59530       78.38216
H         67.51345       52.41355       77.88119
N         67.92279       49.43306       78.18263
C         67.63440       48.43105       77.16331
C         67.26493       49.10033       75.85821
O         67.92171       50.05033       75.45203
C         68.90247       47.57454       76.93594
C         68.78812       46.62314       75.76143
N         67.83056       45.66897       75.72675
O         69.56994       46.72658       74.82692
H         68.79942       49.96714       78.07710
H         66.80007       47.76187       77.47099
H         69.13092       47.00197       77.85796
H         69.76016       48.25576       76.73141
H         67.15806       45.57051       76.49937
H         67.76137       45.03389       74.91703
N         66.25415       48.58344       75.10369
C         65.95650       49.06051       73.75775
C         64.56395       48.59393       73.37001
O         64.35069       48.07686       72.27999
C         67.05939       48.49499       72.83621
C         67.03498       48.95051       71.40669
C         67.13041       50.31427       71.09469
C         66.98226       48.00309       70.37113
C         67.18391       50.72530       69.76038
C         67.04468       48.41497       69.03971
C         67.15211       49.77827       68.72994
O         67.23652       50.18425       67.44770
H         65.73616       47.76564       75.46438
H         65.93341       50.17336       73.77877
H         67.00236       47.38261       72.88741
H         68.05094       48.78465       73.23790
H         67.17876       51.05412       71.88390
H         66.91781       46.94498       70.59564
H         67.26736       51.77885       69.52778
H         67.02320       47.67393       68.25072
H         67.24937       49.55054       66.71616
N         63.57301       48.67928       74.29470
C         62.24810       48.11997       74.10731
C         61.44062       48.93790       73.10171
O         60.97947       48.34307       72.13939
C         61.62360       47.87442       75.49537
C         60.22727       47.25758       75.45961
C         59.74089       46.93560       76.85052
O         60.48036       47.25042       77.93505
O         58.66735       46.37736       77.00004
H         63.81023       49.06660       75.22271
H         62.35248       47.09057       73.68749
H         61.60164       48.79091       76.11148
H         62.29994       47.14673       76.00804
H         60.25769       46.31997       74.86444
H         59.51809       47.96575       74.98272
N         61.26783       50.29536       73.16774
C         61.71698       51.17031       74.24529
C         62.88321       52.04450       73.82945
O         63.30700       52.01289       72.68065
C         60.53090       52.05422       74.68084
C         59.46494       51.23235       75.40384
C         58.28982       52.08913       75.76516
O         58.00605       52.33428       77.05677
O         57.58508       52.56499       74.88936
H         60.78034       50.74455       72.37462
H         62.09207       50.60278       75.10780
H         60.10440       52.55624       73.78148
H         60.86388       52.85021       75.38036
H         59.93006       50.82846       76.32605
H         59.11224       50.38367       74.78146
N         63.48422       52.83168       74.76756
C         64.62224       53.67298       74.47598
H         65.46846       53.05805       74.10400
H         64.34853       54.44290       73.72515
H         64.94699       54.18782       75.40718
H         63.13111       52.81680       75.73708
Ca        58.32243       52.68323       80.03892
O         58.33974       50.56908       81.91312
H         57.67601       49.86197       82.10931
H         59.20088       50.21111       82.24406
O         59.76807       50.19732       79.02255
H         60.73176       50.29750       78.82047
H         59.42055       49.63137       78.29005
O         56.60224       50.63507       79.16202
H         56.19176       50.11215       79.89493
H         56.35512       50.15447       78.33353
O         60.11115       54.31132       78.29071
H         59.74155       55.15400       78.65641
H         60.81450       54.59782       77.65680

Ca 1.70



