%chk=loop2.cluster230.chk
%nprocshared=48
%mem=10GB
%nosave
#b3lyp/svp scf=(tight,noincore) Test 
#IOP(5/87=12) Density=Current Pop=(MK,readradii) iop(6/33=2) iop(6/42=6)

loop2.cluster230 

   -2  1 
C         87.78658       83.37516       39.04005
C         88.94969       83.00574       39.90066
O         89.61383       83.90441       40.40219
H         87.02171       83.90771       39.64393
H         88.14965       84.04853       38.23571
H         87.32816       82.47814       38.57757
N         89.27329       81.69215       40.11534
C         90.46540       81.29853       40.85840
C         90.15114       81.16106       42.35052
O         90.57987       80.21238       42.98860
C         91.01949       79.98820       40.25155
C         92.44790       79.68568       40.61246
O         92.95187       78.63918       40.23855
O         93.20087       80.58492       41.27605
H         88.70928       80.96114       39.65451
H         91.22492       82.09823       40.71708
H         90.98817       80.05503       39.14317
H         90.35364       79.14949       40.55850
N         89.39233       82.11425       42.95825
C         89.03488       82.09116       44.36501
C         87.60980       82.64436       44.51667
O         87.10224       83.24684       43.58443
C         90.07424       82.97080       45.08112
H         89.06852       82.90726       42.41165
H         89.07199       81.04904       44.74537
H         91.09325       82.59151       44.84953
H         90.00500       84.01656       44.71281
H         89.99384       82.99292       46.17790
N         86.89396       82.52803       45.66481
C         87.34681       81.83436       46.85842
C         87.28986       80.33360       46.72664
O         86.53943       79.81436       45.91007
C         86.52425       82.27971       48.05846
C         86.57969       83.76665       48.15724
O         87.63394       84.35089       48.35628
O         85.46059       84.43390       47.85879
H         85.98902       83.01955       45.68919
H         88.37532       82.12792       47.09106
H         86.87581       81.82302       49.00601
H         85.46335       81.98321       47.89469
N         88.08286       79.57721       47.53423
C         88.15465       78.12814       47.49636
C         88.72322       77.64230       46.18481
O         89.57922       78.32194       45.63508
H         88.69781       80.06393       48.20307
H         87.18545       77.66848       47.73898
H         88.85032       77.80343       48.29712
N         88.40063       76.42987       45.64628
C         87.59091       75.42470       46.34034
C         86.07949       75.70421       46.28265
O         85.31774       74.94098       46.85518
C         87.98937       74.00971       45.81368
C         88.03617       72.95468       46.90529
N         86.91714       72.46983       47.48587
O         89.12533       72.53751       47.27503
H         88.90120       76.15399       44.78667
H         87.91779       75.43843       47.40259
H         89.05059       74.07129       45.47986
H         87.41126       73.70160       44.91468
H         85.98522       72.75773       47.17505
H         86.99228       71.77558       48.24409
N         85.56107       76.77659       45.61258
C         84.12677       77.03438       45.56247
C         83.55326       77.45956       46.90156
O         82.38543       77.19691       47.15165
H         86.18422       77.41607       45.10033
H         83.60176       76.12230       45.20120
H         83.91062       77.83835       44.82646
N         84.29890       78.19829       47.77650
C         83.80960       78.65179       49.07295
C         83.30712       80.07739       48.90714
O         83.76736       80.95014       49.61605
C         84.98785       78.59357       50.10476
C         84.54670       78.78491       51.56369
O         85.65745       77.36518       50.00593
H         85.24264       78.47397       47.50485
H         82.98500       77.98311       49.41101
H         85.70400       79.41149       49.83061
H         86.60768       77.54572       50.24431
H         84.06838       79.76761       51.74611
H         83.83865       77.98046       51.85133
H         85.43779       78.72037       52.22637
N         82.39587       80.39503       47.94282
C         82.01536       81.77341       47.61217
C         80.73212       82.19645       48.30868
O         80.11682       81.39883       49.00413
C         81.92447       81.97340       46.05718
C         83.33566       81.91993       45.43837
C         80.91485       81.02342       45.37939
C         83.35882       82.05919       43.91379
H         82.03601       79.63572       47.35863
H         82.78892       82.47873       47.99346
H         81.55451       82.99609       45.84408
H         83.87533       80.98922       45.71458
H         83.87347       82.78727       45.87062
H         81.21019       79.95906       45.43938
H         79.91035       81.15584       45.83191
H         80.81693       81.26682       44.30228
H         84.40271       82.20302       43.56530
H         82.96421       81.13696       43.44033
H         82.75139       82.92215       43.57628
N         80.28196       83.47622       48.15278
C         79.07380       84.01523       48.76490
C         78.01375       84.25431       47.70381
O         78.21139       83.88791       46.55635
C         79.38746       85.34558       49.47813
C         80.50826       85.22214       50.44950
O         80.40227       84.39593       51.50690
O         81.51730       85.88721       50.29372
H         80.82430       84.10816       47.55927
H         78.65405       83.29412       49.50093
H         78.50688       85.70727       50.04778
H         79.64630       86.11254       48.71521
N         76.83504       84.84615       48.04717
C         75.65702       84.88278       47.19378
C         75.86926       85.47675       45.80088
O         75.81970       84.71779       44.83830
C         75.09457       83.44516       47.14508
C         73.61326       83.44192       46.88341
C         73.09565       83.46263       45.57932
C         72.73082       83.42654       47.97777
C         71.71311       83.45450       45.37713
C         71.35306       83.42126       47.77107
C         70.84304       83.43054       46.47155
H         76.69985       85.15125       49.02020
H         74.89190       85.48700       47.73163
H         75.22800       83.00639       48.15919
H         75.65803       82.76187       46.47180
H         73.75179       83.47247       44.72204
H         73.11524       83.42574       48.99156
H         71.31665       83.46311       44.37107
H         70.68299       83.40871       48.62044
H         69.77391       83.41939       46.31329
N         76.05068       86.81447       45.55896
C         76.17357       87.33014       44.21084
C         77.56105       87.05684       43.64442
O         77.76436       87.21315       42.45217
C         75.83866       88.81075       44.38306
C         76.39014       89.11979       45.77044
C         76.06894       87.84677       46.57499
H         75.41565       86.87177       43.53453
H         76.17149       89.47828       43.55843
H         74.73080       88.88667       44.46376
H         77.49282       89.20397       45.65718
H         76.00517       90.05770       46.22846
H         76.85802       87.68306       47.34215
H         75.06683       87.89459       47.04585
N         78.55974       86.62947       44.46783
C         79.88203       86.24439       43.99672
C         79.80481       84.94739       43.19442
O         80.62664       84.74380       42.31014
C         80.77717       86.15047       45.24310
C         82.25158       85.89149       44.98403
C         83.03798       86.17909       46.22920
O         82.74619       85.58692       47.39699
O         83.93725       87.00066       46.19466
H         78.38347       86.58086       45.47860
H         80.28917       87.06037       43.36001
H         80.37320       85.38188       45.92493
H         80.69854       87.13679       45.75270
H         82.62003       86.57188       44.18890
H         82.40304       84.84785       44.65748
N         78.78375       84.06331       43.40242
C         78.56720       82.87024       42.61220
H         77.58786       82.96562       42.09465
H         79.35565       82.70767       41.85010
H         78.51834       81.98445       43.28034
H         78.09929       84.25576       44.13961
Ca        84.28152       85.93493       48.98152
O         83.47037       83.84428       50.51515
H         83.15912       82.94468       50.31160
H         82.84905       84.10150       51.23230
O         85.29903       88.55750       48.24200
H         84.91371       89.16430       47.56287
H         85.65330       89.15675       48.94519
O         84.95437       85.65074       51.96383
H         84.31657       85.13200       52.51158
H         85.71191       85.81898       52.57419
O         83.84480       88.11250       51.07181
H         83.83040       89.06541       50.80572
H         83.43151       88.09602       51.97102
O         86.79028       86.80673       50.03888
H         86.89089       85.82400       50.04422
H         87.33775       87.11318       49.27393
O         81.90295       88.51335       48.69672
H         81.15740       88.21565       48.11844
H         81.63088       88.23676       49.60636

Ca 1.70



