%chk=loop2.cluster45.chk
%nprocshared=48
%mem=10GB
%nosave
#b3lyp/svp scf=(tight,noincore) Test 
#IOP(5/87=12) Density=Current Pop=(MK,readradii) iop(6/33=2) iop(6/42=6)

loop2.cluster45 

   -2  1 
C         48.13138       43.13412        8.60864
C         47.22284       43.95143        7.74370
O         47.35815       45.16653        7.74574
H         48.98552       43.76488        8.93557
H         47.57661       42.80578        9.51140
H         48.54408       42.26520        8.06195
N         46.29510       43.39269        6.91782
C         46.20077       41.95628        6.63168
C         45.80619       41.01887        7.75820
O         45.17409       41.42289        8.71837
C         45.30032       41.69258        5.40603
C         43.98142       42.40818        5.34244
O         43.37786       42.37065        4.28358
O         43.53387       43.22073        6.33356
H         45.73770       44.04820        6.34923
H         47.21208       41.62442        6.32011
H         45.12961       40.60301        5.25441
H         45.85484       42.06909        4.52256
N         46.15882       39.69583        7.64358
C         45.68834       38.61102        8.49634
C         44.25924       38.32053        8.10345
O         44.05018       37.77422        7.02791
C         45.96483       38.83043        9.99396
H         46.74506       39.42295        6.84069
H         46.25818       37.69285        8.22713
H         45.66031       37.91950       10.55481
H         47.04926       38.99591       10.15688
H         45.42395       39.69493       10.42387
N         43.21932       38.77827        8.84467
C         41.85246       38.77572        8.34150
C         41.77941       39.57625        7.05064
O         42.38947       40.61804        6.99090
C         40.88196       39.26068        9.44561
C         41.17816       40.46732       10.34054
O         42.19736       41.34223       10.16777
O         40.50147       40.58878       11.34897
H         43.41131       39.22960        9.74553
H         41.53396       37.73609        8.10478
H         40.86414       38.41226       10.16596
H         39.85779       39.33409        9.02464
N         41.17158       39.08803        5.92577
C         41.20054       39.80532        4.64845
C         40.17352       40.93442        4.53485
O         39.48214       41.00379        3.52883
H         40.76659       38.14221        5.94843
H         40.97325       39.08758        3.83135
H         42.23299       40.15962        4.44875
N         40.02619       41.85610        5.52444
C         39.06248       42.95057        5.51946
C         39.78024       44.29882        5.55838
O         39.14285       45.31641        5.79533
C         38.12034       42.77729        6.73418
C         38.81718       42.54511        8.05568
N         38.36072       41.59134        8.89891
O         39.77666       43.22942        8.37699
H         40.61656       41.79199        6.34998
H         38.42433       42.96053        4.60908
H         37.45924       41.90558        6.53986
H         37.46392       43.66641        6.82972
H         37.53242       41.02748        8.66185
H         38.80936       41.44465        9.80893
N         41.10799       44.37880        5.27331
C         41.86109       45.61842        5.29514
C         41.98059       46.17217        6.70830
O         41.64573       45.47133        7.64827
H         41.58616       43.53696        4.97652
H         41.35988       46.31853        4.60558
H         42.88978       45.44318        4.90683
N         42.43660       47.43862        6.95364
C         42.69429       48.41053        5.89492
C         43.70445       49.51966        6.27230
O         43.99086       50.35120        5.42811
C         41.33280       49.02642        5.45758
C         40.73529       49.96664        6.52273
O         41.45207       49.65591        4.20444
H         42.37244       47.75863        7.93078
H         43.13369       47.86991        5.02624
H         40.58526       48.21740        5.32237
H         41.65729       50.61510        4.33810
H         41.41678       50.82156        6.71708
H         39.76691       50.37085        6.16242
H         40.56244       49.42604        7.47694
N         44.25948       49.60246        7.52598
C         45.16091       50.67300        7.96608
C         44.48432       52.05351        7.95965
O         44.87411       52.89231        7.15577
C         46.52530       50.66417        7.19946
C         47.13069       49.23324        7.20850
C         47.49672       51.66418        7.87724
C         48.56865       49.14064        6.69052
H         44.05057       48.88571        8.22421
H         45.43492       50.46082        9.02049
H         46.37424       50.98701        6.14470
H         46.49326       48.56329        6.58972
H         47.13122       48.84502        8.24916
H         47.06904       52.67667        7.99976
H         47.78101       51.29979        8.88700
H         48.40654       51.80456        7.26041
H         48.63899       49.48558        5.63882
H         49.25596       49.73852        7.32535
H         48.91373       48.08801        6.75784
N         43.47829       52.41119        8.81548
C         42.79884       51.50445        9.73543
C         43.54232       51.20548       11.04602
O         44.07683       50.11042       11.17149
C         41.31847       51.93505        9.94034
C         41.00877       53.32929       10.46386
O         39.85156       53.61992       10.71625
O         41.95803       54.27967       10.58607
H         43.09521       53.35833        8.69998
H         42.69394       50.53237        9.21486
H         40.84181       51.18442       10.60542
H         40.81106       51.88089        8.95328
N         43.48855       52.05812       12.11608
C         43.99480       51.73419       13.44148
C         42.81786       51.46925       14.37741
O         41.83464       52.20008       14.29396
C         44.86741       52.88992       13.99572
C         44.11112       54.15621       14.36355
C         44.09822       55.25827       13.49434
C         43.43909       54.25161       15.60093
C         43.41486       56.42804       13.84848
C         42.76288       55.42445       15.95122
C         42.74962       56.51118       15.07515
H         42.98015       52.93384       12.03667
H         44.67773       50.86908       13.37959
H         45.65633       53.11404       13.24701
H         45.40162       52.55153       14.91144
H         44.60979       55.20764       12.54245
H         43.44660       53.42100       16.29639
H         43.40339       57.27277       13.17270
H         42.25215       55.49242       16.90426
H         42.22690       57.41937       15.34862
N         42.86648       50.53575       15.37627
C         43.97314       49.62204       15.60224
C         44.24323       48.67222       14.44828
O         43.47416       48.62707       13.49963
C         43.49462       48.81063       16.81496
C         42.64591       49.81558       17.56833
C         41.88527       50.50512       16.43663
H         44.86822       50.24276       15.82769
H         42.78534       48.02252       16.46988
H         44.30717       48.32759       17.39763
H         41.99926       49.39897       18.36948
H         43.34762       50.55298       18.02243
H         40.99300       49.94301       16.08887
H         41.59746       51.52196       16.79212
N         45.35927       47.89189       14.47559
C         45.72459       46.96081       13.40791
C         47.11719       46.37772       13.70146
O         47.22437       45.18543       13.94566
C         44.63831       45.85642       13.21293
C         44.24175       45.09591       14.49561
C         43.26964       43.98881       14.20143
O         42.01018       44.27617       13.82603
O         43.60960       42.82312       14.33313
H         45.98949       47.98618       15.28681
H         45.79388       47.49358       12.43573
H         45.03173       45.14048       12.46028
H         43.72059       46.29958       12.77285
H         43.77267       45.78166       15.23277
H         45.13739       44.64959       14.96372
N         48.25031       47.14522       13.72654
C         48.32004       48.54503       13.35211
H         49.24722       48.70269       12.75696
H         47.47997       48.86981       12.70954
H         48.39729       49.17946       14.25814
H         49.13600       46.69352       14.00336
Ca        42.80673       42.61067        8.39290
O         44.36581       45.57125        9.10580
H         45.26316       45.80377        8.76838
H         43.99015       46.44206        9.38514
O         44.26954       43.09038       10.92092
H         43.64733       42.99867       11.68285
H         45.16598       42.96755       11.31854
O         41.44114       44.50880       10.56830
H         41.65215       44.13022       11.45408
H         40.47226       44.69978       10.61851

Ca 1.70



