%chk=loop3.cluster146.chk
%nprocshared=48
%mem=10GB
%nosave
#b3lyp/svp scf=(tight,noincore) Test 
#IOP(5/87=12) Density=Current Pop=(MK,readradii) iop(6/33=2) iop(6/42=6)

loop3.cluster146 

   0  1 
C         56.40962       57.35356       45.12126
C         56.36441       57.69658       46.58158
O         55.29330       57.62155       47.14937
H         57.40114       57.56944       44.67276
H         56.20964       56.26521       45.03138
H         55.62711       57.90413       44.55628
N         57.51846       58.00991       47.25187
C         57.69141       58.22719       48.69952
C         56.95239       59.43899       49.28255
O         57.61167       60.37190       49.72492
C         57.44553       56.94855       49.53919
C         58.25766       55.77260       49.05298
O         58.04920       55.29421       47.94940
O         59.20256       55.22786       49.84461
H         58.38788       58.01304       46.69756
H         58.77751       58.43837       48.83772
H         56.37505       56.66259       49.55295
H         57.75628       57.16682       50.58760
N         55.59175       59.46335       49.38840
C         54.82622       60.52640       50.02977
C         55.28179       60.68196       51.48085
O         55.62740       61.76938       51.90381
C         53.29354       60.25750       49.89854
C         52.65922       59.12187       50.75051
C         52.98777       57.66830       50.30950
C         52.32320       56.59594       51.19076
N         53.04374       56.41802       52.44525
H         55.07146       58.67289       49.03489
H         55.01989       61.47641       49.48065
H         53.04193       60.09757       48.82401
H         52.78501       61.19779       50.20281
H         51.55622       59.23019       50.64831
H         52.88780       59.31158       51.81622
H         54.06287       57.42804       50.31909
H         52.60433       57.55377       49.27536
H         52.34631       55.61802       50.66610
H         51.26533       56.87574       51.38024
H         53.97152       55.96859       52.27994
H         53.18631       57.34006       52.86682
H         52.50507       55.82011       53.10302
N         55.43656       59.55403       52.22583
C         56.13358       59.49213       53.52048
C         56.41454       58.02395       53.86329
O         56.01185       57.14269       53.12447
C         55.39605       60.25236       54.66347
C         54.03184       59.73410       55.00126
O         53.24338       60.35551       55.88515
O         53.60257       58.74756       54.45535
H         55.16526       58.68108       51.77251
H         57.12723       59.96634       53.38868
H         55.29365       61.31719       54.37867
H         56.00478       60.21224       55.59066
N         57.12146       57.69125       54.97899
C         57.41260       56.29545       55.27624
C         56.53846       55.77452       56.37773
O         55.79174       56.52512       56.98857
H         57.43854       58.41863       55.62860
H         58.49203       56.15341       55.48242
H         57.17619       55.64923       54.40340
N         56.50521       54.42959       56.58341
C         55.55049       53.78082       57.46904
C         56.27043       52.81937       58.38011
O         55.77787       51.72394       58.61479
C         54.55628       53.02351       56.55996
C         53.80535       53.99306       55.70793
N         53.04331       54.93771       56.29157
O         53.90299       53.94793       54.48998
H         57.10930       53.82972       56.00180
H         55.01807       54.51858       58.10635
H         53.82456       52.43817       57.15287
H         55.12764       52.33402       55.90206
H         52.94800       54.98657       57.31551
H         52.57195       55.63159       55.71904
N         57.50390       53.13140       58.86084
C         58.33202       52.15710       59.54380
C         58.54294       50.94850       58.65440
O         58.95645       51.11049       57.51483
H         57.90253       54.06303       58.66945
H         57.85882       51.86488       60.50588
H         59.31687       52.61912       59.76183
N         58.24726       49.70023       59.12648
C         58.33406       48.44393       58.37135
C         57.17901       48.20119       57.42824
O         56.94271       47.04966       57.10053
C         59.67897       48.23559       57.65106
C         60.81208       48.43708       58.61049
C         60.93822       47.60165       59.73018
C         61.73267       49.47665       58.41052
C         61.96862       47.80746       60.64496
C         62.76511       49.68011       59.32684
C         62.88577       48.84437       60.44800
O         63.87900       49.02979       61.33849
H         57.97234       49.62087       60.11694
H         58.21789       47.64415       59.13599
H         59.75598       48.94109       56.79544
H         59.73202       47.21153       57.22013
H         60.23329       46.79645       59.89589
H         61.64345       50.13393       57.55336
H         62.05152       47.16103       61.50849
H         63.46661       50.48862       59.16814
H         64.53867       49.72756       61.22239
N         56.45930       49.23441       56.90741
C         55.32391       49.12062       56.00736
C         54.06631       48.68217       56.75812
O         53.16254       49.48965       56.91076
C         55.65852       48.32847       54.70464
C         57.05063       48.69757       54.11240
C         54.55238       48.54020       53.65427
C         57.22435       50.15776       53.69664
H         56.75895       50.18633       57.10919
H         55.11328       50.15635       55.67536
H         55.71747       47.24068       54.92398
H         57.23693       48.05565       53.22427
H         57.85080       48.45276       54.84296
H         53.61585       48.04713       53.97476
H         54.34343       49.62289       53.51086
H         54.84951       48.11309       52.67318
H         58.23548       50.28698       53.25422
H         56.47523       50.44065       52.93082
H         57.14165       50.83339       54.57235
N         53.94101       47.42527       57.26497
C         52.72856       46.93252       57.91744
C         51.56556       46.95886       56.93765
O         50.49024       47.41980       57.29518
C         52.97768       45.51653       58.47471
O         53.49243       44.65357       57.49156
H         54.71048       46.76720       57.13522
H         52.47070       47.56454       58.79915
H         52.04592       45.08097       58.89200
H         53.69650       45.61348       59.32582
H         54.38935       44.35515       57.80516
N         51.76765       46.58638       55.63930
C         50.78493       46.71950       54.56565
C         50.05794       48.06744       54.59116
O         48.84087       48.09193       54.46221
C         49.81101       45.53363       54.59098
H         52.71197       46.27463       55.36977
H         51.34949       46.64573       53.61031
H         49.20110       45.54212       55.51945
H         49.13344       45.57690       53.71090
H         50.37579       44.57820       54.54303
N         50.74394       49.23299       54.78492
C         50.06637       50.50765       55.02689
C         50.16213       51.45827       53.86173
O         51.23175       51.62516       53.29122
C         50.65234       51.21439       56.24827
H         51.76866       49.19891       54.87122
H         48.99283       50.33774       55.26431
H         50.57810       50.57145       57.14787
H         51.71298       51.48925       56.06674
H         50.08348       52.15287       56.43811
N         49.05776       52.18343       53.51244
C         49.03622       53.22730       52.49614
C         49.31648       52.74354       51.07884
O         49.29193       53.57105       50.17744
C         49.91073       54.44359       52.90427
C         49.33690       55.13225       54.16294
C         49.78366       56.56542       54.31343
O         48.98927       57.47043       54.11905
O         51.03280       56.86974       54.67723
H         48.18531       52.03259       54.04142
H         47.99608       53.61850       52.44075
H         49.82962       55.17848       52.07711
H         50.98220       54.17649       53.02439
H         49.53603       54.53927       55.08354
H         48.23718       55.18819       54.03481
N         49.53391       51.42745       50.78474
C         49.76050       50.95994       49.43182
H         50.76879       50.50273       49.37050
H         48.99816       50.19434       49.17674
H         49.69741       51.77286       48.67799
H         49.52577       50.71747       51.52683
Ca        51.15911       59.49536       55.83836
O         49.10076       58.01673       57.21368
H         48.33094       58.34210       57.74329
H         49.34349       57.14877       57.62239
O         52.19855       58.13443       57.92091
H         51.69926       57.90997       58.74453
H         53.15411       58.03659       58.15494
O         48.50067       60.49189       55.14336
H         47.92038       60.31938       55.92620
H         48.10366       61.28496       54.70452
O         50.11146       60.92184       57.79718
H         50.42405       60.68021       58.70370
H         49.83141       61.86772       57.85024
O         51.00170       61.43140       53.88371
H         51.95223       61.68347       53.77410
H         50.69976       61.17045       52.97858

Ca 1.70



