%chk=loop1.cluster130.chk
%nprocshared=48
%mem=10GB
%nosave
#b3lyp/svp scf=(tight,noincore) Test 
#IOP(5/87=12) Density=Current Pop=(MK,readradii) iop(6/33=2) iop(6/42=6)

loop1.cluster130 

   0  1 
C         46.37697       38.86518        6.79905
C         46.53108       38.51281        5.35575
O         47.52447       38.89416        4.75751
H         45.36383       38.59778        7.16348
H         47.13394       38.30483        7.38397
H         46.52409       39.95650        6.94094
N         45.56986       37.78124        4.72365
C         45.67379       37.37368        3.32785
C         45.02426       38.39023        2.41749
O         44.21929       38.02102        1.57357
C         45.18698       35.91044        3.12726
C         43.71590       35.66946        3.40136
O         43.00740       35.18786        2.53204
O         43.18330       35.92958        4.61025
H         44.76752       37.46875        5.27804
H         46.73442       37.38646        3.04089
H         45.77597       35.25235        3.79774
H         45.40199       35.60057        2.07951
N         45.35524       39.71376        2.52733
C         44.79493       40.73947        1.66927
C         45.93218       41.60848        1.13551
O         46.40141       42.44466        1.89664
C         43.82919       41.63630        2.50943
C         42.71014       40.85723        3.22703
C         41.63000       40.37234        2.25587
C         40.62462       39.40749        2.90546
N         41.26612       38.16581        3.35825
H         46.00253       40.01798        3.26361
H         44.22835       40.26522        0.86025
H         43.38799       42.44063        1.87868
H         44.42158       42.12733        3.31284
H         42.21816       41.51650        3.97575
H         43.16888       40.01695        3.78740
H         42.08279       39.84599        1.39293
H         41.08726       41.26204        1.86544
H         39.87335       39.16156        2.12376
H         40.08673       39.88782        3.75335
H         42.12695       37.96085        2.80877
H         41.51853       38.23432        4.37045
H         40.61377       37.36021        3.22488
N         46.48305       41.51729       -0.11472
C         46.27333       40.50962       -1.15195
C         44.89150       40.55403       -1.80435
O         43.97600       41.12773       -1.23108
C         46.81376       39.12332       -0.71023
C         48.29187       39.25076       -0.44103
O         49.04886       39.56982       -1.34340
O         48.79640       39.03131        0.77785
H         47.20380       42.21690       -0.33428
H         46.95341       40.83651       -1.95833
H         46.69658       38.34981       -1.49211
H         46.28404       38.75778        0.18269
N         44.67616       40.12028       -3.08683
C         45.74020       39.59903       -3.93794
C         45.37684       39.62221       -5.41561
O         44.81649       40.60847       -5.86088
H         43.74216       40.26277       -3.49666
H         46.08286       38.62351       -3.56000
H         46.59802       40.29292       -3.91637
N         45.80243       38.65191       -6.28212
C         46.51295       37.46271       -5.84942
C         45.53581       36.58646       -5.09294
O         44.35151       36.58877       -5.42062
C         47.12793       36.70184       -7.04012
C         48.21019       35.75549       -6.58764
O         49.34558       36.24608       -6.04814
O         48.08805       34.55245       -6.74523
H         45.63506       38.79321       -7.29222
H         47.36798       37.79106       -5.21206
H         47.62395       37.41756       -7.73070
H         46.32685       36.17434       -7.60063
N         45.92602       35.92454       -3.98289
C         44.97233       35.23337       -3.13955
C         45.59881       34.93453       -1.80978
O         45.07061       35.36000       -0.79204
H         46.92007       35.96864       -3.70670
H         44.60454       34.31049       -3.64434
H         44.09357       35.89292       -2.95158
N         46.74685       34.20596       -1.73981
C         47.35573       33.87687       -0.45888
C         48.00928       35.09133        0.19087
O         48.27524       36.08452       -0.47474
C         48.44240       32.77126       -0.60966
C         47.96127       31.51561       -1.34567
O         48.94319       32.38930        0.64728
H         47.15811       33.84785       -2.61332
H         46.54530       33.48618        0.19642
H         49.28641       33.19239       -1.20038
H         48.17526       32.05370        1.18298
H         47.66300       31.73708       -2.38918
H         48.79787       30.78672       -1.39170
H         47.10569       31.05278       -0.81248
N         48.35874       35.02237        1.50528
C         49.13299       36.03844        2.21121
C         50.49588       36.29790        1.59702
O         51.00413       37.36724        1.82965
C         49.23637       35.69368        3.73711
C         49.99575       36.78247        4.54474
C         49.87847       34.30984        3.98916
C         49.95862       36.55427        6.05693
H         48.02632       34.20626        2.02909
H         48.58193       36.98886        2.10643
H         48.18758       35.65372        4.10405
H         49.55212       37.77011        4.33101
H         51.06113       36.82955        4.23896
H         49.71932       34.00743        5.04330
H         49.42689       33.49600        3.39501
H         50.96388       34.33015        3.76544
H         50.46403       37.39655        6.57322
H         48.90889       36.48938        6.41178
H         50.50199       35.62746        6.33339
N         51.13323       35.38718        0.80610
C         52.43531       35.58033        0.14621
C         53.58931       35.69300        1.15895
O         54.34289       34.74312        1.30350
C         52.39174       36.69214       -0.95406
C         53.45284       36.44541       -2.03850
O         52.48052       37.99673       -0.43148
H         50.67285       34.47948        0.65712
H         52.59216       34.62306       -0.40231
H         51.41926       36.63327       -1.48864
H         53.41404       38.32956       -0.52375
H         53.19444       35.52062       -2.59804
H         53.46338       37.29129       -2.75882
H         54.46186       36.33144       -1.59118
N         53.74345       36.81687        1.92022
C         54.61877       36.99700        3.06759
C         56.09187       37.05127        2.72646
O         56.49136       36.59582        1.66338
C         54.24002       36.03703        4.23021
C         54.18719       36.75847        5.58081
O         55.12890       34.95559        4.31995
H         53.15851       37.62191        1.72213
H         54.36536       38.02452        3.41134
H         53.19810       35.66827        4.08681
H         54.89800       34.31479        3.60358
H         53.42754       37.57119        5.53732
H         53.87983       36.04872        6.37624
H         55.16276       37.19517        5.86082
N         56.95033       37.68239        3.58017
C         58.38011       37.73254        3.37192
C         58.96302       39.05980        2.86727
O         60.09457       38.97426        2.40728
C         59.12540       37.31295        4.66474
C         58.61389       36.02088        5.33040
C         58.63798       34.79229        4.41250
C         58.09515       33.56004        5.15263
N         58.21010       32.35595        4.33190
H         56.57959       38.07447        4.44153
H         58.63874       36.99480        2.58077
H         59.01083       38.12382        5.42022
H         60.21087       37.21247        4.44522
H         57.57887       36.18308        5.69903
H         59.25819       35.82071        6.21666
H         59.68179       34.61001        4.08013
H         58.00104       34.96545        3.51958
H         57.02822       33.72558        5.41720
H         58.65917       33.40709        6.09778
H         59.21850       32.15892        4.13648
H         57.80609       31.54713        4.85740
H         57.68969       32.47203        3.43220
N         58.40604       40.32266        2.90225
C         57.13435       40.84415        3.41876
C         56.87547       40.54016        4.89243
O         55.80128       40.06562        5.23802
C         55.94666       40.60709        2.45012
C         54.74894       41.50902        2.82539
C         53.51226       41.24062        2.03213
O         52.83047       40.10424        2.23206
O         53.02225       42.12033        1.34462
H         59.02097       41.06339        2.52563
H         57.25646       41.95165        3.39341
H         55.66072       39.55220        2.43075
H         56.25669       40.88289        1.41651
H         55.05064       42.57027        2.69520
H         54.44887       41.37601        3.87974
N         57.81832       40.82612        5.83072
C         57.59104       40.61153        7.24913
H         56.53321       40.35822        7.48167
H         58.23698       39.78405        7.60539
H         57.84002       41.53665        7.80984
H         58.73096       41.20015        5.53261
Ca        50.85879       39.85015        1.18885
O         52.12454       41.01319       -1.33805
H         52.47998       41.93711       -1.35332
H         52.24664       40.68276       -2.26277
O         49.81167       40.56388        3.52512
H         50.54947       40.93094        4.07299
H         49.03003       41.13862        3.71353
O         49.67806       42.31221        0.17194
H         49.48709       42.23525       -0.79717
H         49.15261       43.09545        0.47274

Ca 1.70



