%chk=loop2.cluster161.chk
%nprocshared=48
%mem=10GB
%nosave
#b3lyp/svp scf=(tight,noincore) Test 
#IOP(5/87=12) Density=Current Pop=(MK,readradii) iop(6/33=2) iop(6/42=6)

loop2.cluster161 

   -2  1 
C         90.93550      102.38857       35.52165
C         90.95137      103.60346       36.39547
O         90.18812      104.52654       36.14733
H         91.97760      102.08186       35.29831
H         90.40524      101.55646       36.03192
H         90.42096      102.61550       34.56396
N         91.79389      103.66191       37.46654
C         91.84713      104.81561       38.35767
C         91.05087      104.53314       39.62939
O         90.95157      105.40658       40.48073
C         93.33362      105.15090       38.65792
C         93.66214      106.61868       38.77855
O         94.93922      106.98906       38.99375
O         92.80983      107.47628       38.60881
H         92.39674      102.84985       37.67304
H         91.37113      105.67698       37.84147
H         93.96492      104.79344       37.81809
H         93.66207      104.60345       39.57061
N         90.40562      103.33526       39.78760
C         89.55364      103.00136       40.91434
C         89.78007      101.53704       41.30675
O         89.72167      100.69301       40.42082
C         88.09791      103.18069       40.48680
H         90.44556      102.63821       39.03203
H         89.68637      103.72439       41.72869
H         87.89065      102.65987       39.52875
H         87.41409      102.79111       41.27051
H         87.89012      104.26531       40.35896
N         89.96534      101.10791       42.59266
C         89.93217      101.96323       43.77695
C         91.03994      101.54222       44.73896
O         91.51241      100.42280       44.64471
C         88.49441      101.85617       44.39041
C         88.11979      102.88219       45.43889
O         88.84181      103.84620       45.62423
O         86.96409      102.79766       46.15315
H         90.00827      100.08700       42.74211
H         90.16093      103.00116       43.51423
H         88.35227      100.83283       44.78532
H         87.75699      102.00440       43.56981
N         91.50687      102.40709       45.68637
C         92.48854      102.05802       46.70827
C         93.89508      101.87151       46.17122
O         94.27045      102.60410       45.26870
H         91.12808      103.35993       45.71216
H         92.12590      101.20010       47.29427
H         92.55304      102.91802       47.40616
N         94.78449      100.97187       46.70559
C         94.52239      100.12257       47.86819
C         93.90030       98.78900       47.47980
O         93.77640       97.91821       48.32851
C         95.79653      100.01108       48.73623
C         95.57129       99.27613       50.04181
N         96.40678       98.28298       50.42483
O         94.63973       99.59515       50.76725
H         95.73267      100.93753       46.29772
H         93.79665      100.62202       48.54332
H         96.10206      101.04644       48.99967
H         96.62136       99.54044       48.16024
H         97.22059       98.02937       49.84669
H         96.25551       97.79027       51.31785
N         93.32437       98.62745       46.25441
C         92.42483       97.52633       45.96703
C         91.31277       97.52524       46.99408
O         91.07382       96.50405       47.62279
H         93.41711       99.35974       45.54396
H         92.97101       96.56039       45.96397
H         91.98553       97.68381       44.95594
N         90.61330       98.66993       47.23503
C         89.56629       98.78892       48.23155
C         88.29658       98.78968       47.42417
O         87.73716       99.84330       47.16726
C         89.78789      100.07474       49.09499
C         88.97841      100.01861       50.40703
O         91.15887      100.19513       49.39809
H         90.80831       99.49722       46.66478
H         89.56699       97.91027       48.91175
H         89.48093      100.96751       48.50064
H         91.27317      100.82458       50.15744
H         89.01039      101.00864       50.91460
H         87.91942       99.73863       50.24236
H         89.44845       99.27784       51.09227
N         87.87555       97.62104       46.86296
C         86.81291       97.53745       45.87031
C         85.58181       96.89673       46.44378
O         85.68497       96.06352       47.33668
C         87.26721       96.80680       44.57977
C         88.35309       97.63794       43.86319
C         87.74731       95.36171       44.86492
C         88.57739       97.19633       42.41926
H         88.34669       96.75208       47.15041
H         86.50482       98.56098       45.56944
H         86.37637       96.75978       43.91277
H         89.30350       97.60123       44.43951
H         88.02424       98.69702       43.80671
H         88.67201       95.35469       45.48056
H         86.96854       94.78226       45.40285
H         87.96909       94.81305       43.92981
H         87.63949       97.33499       41.83874
H         89.36591       97.82827       41.96175
H         88.89303       96.13775       42.35414
N         84.35876       97.32864       46.03072
C         83.12694       96.94155       46.67769
C         82.12709       96.34397       45.70442
O         81.62311       97.04630       44.84140
C         82.54090       98.19060       47.34967
C         83.46888       98.71232       48.41968
O         83.39080       98.23329       49.53947
O         84.39555       99.68146       48.19075
H         84.30767       98.04406       45.29788
H         83.32952       96.18755       47.46877
H         81.57889       97.90225       47.82863
H         82.32201       98.98856       46.60700
N         81.76071       95.04102       45.83739
C         80.70562       94.38400       45.06549
C         80.93867       94.44473       43.54019
O         81.94323       93.92593       43.08688
C         80.61666       92.91494       45.55970
C         79.79635       92.03740       44.66030
C         80.41353       90.97370       43.97931
C         78.43363       92.28829       44.46523
C         79.67673       90.18531       43.09742
C         77.69962       91.50078       43.57598
C         78.32135       90.45211       42.88989
H         82.23975       94.48940       46.56785
H         79.74476       94.87059       45.30891
H         80.21452       92.89516       46.59797
H         81.64715       92.49721       45.60195
H         81.46845       90.76674       44.12095
H         77.94909       93.09969       44.99216
H         80.16079       89.37447       42.56895
H         76.65104       91.70813       43.41468
H         77.75383       89.84658       42.19765
N         80.00833       95.01281       42.68582
C         80.15435       94.99991       41.22940
C         81.23930       95.92612       40.72268
O         81.58776       95.84386       39.54787
C         78.75089       95.37391       40.73246
C         78.19094       96.23747       41.85394
C         78.75822       95.59488       43.11606
H         80.39488       93.97473       40.87444
H         78.69887       95.82884       39.71772
H         78.14553       94.44208       40.72970
H         78.64214       97.24708       41.75360
H         77.08187       96.33583       41.86353
H         78.88278       96.38300       43.89179
H         78.10059       94.78465       43.48167
N         81.86558       96.79389       41.55455
C         83.04897       97.54910       41.18790
C         84.15296       96.58405       40.79242
O         84.77757       96.78213       39.76267
C         83.44724       98.44457       42.36827
C         84.65281       99.32891       42.05021
C         84.78410      100.41956       43.05800
O         84.96869      100.12532       44.34868
O         84.70445      101.58434       42.70762
H         81.50743       96.89096       42.51116
H         82.82209       98.22285       40.33021
H         83.64749       97.82454       43.26266
H         82.57123       99.09870       42.58430
H         84.50444       99.80764       41.06126
H         85.58077       98.71947       42.02776
N         84.40032       95.47896       41.55312
C         85.32020       94.43815       41.13960
H         86.24089       94.48807       41.75320
H         84.83830       93.44728       41.29097
H         85.57212       94.50804       40.05975
H         83.87388       95.33643       42.42456
Ca        85.45707      101.12679       46.72458
O         83.64238      102.99215       45.51590
H         82.91169      103.65650       45.48948
H         83.85214      102.83331       44.56517
O         86.20812      102.23228       49.24482
H         86.65412      103.03174       49.62002
H         85.83164      101.75862       50.02820

Ca 1.70



