%chk=loop1.cluster123.chk
%nprocshared=48
%mem=10GB
%nosave
#b3lyp/svp scf=(tight,noincore) Test 
#IOP(5/87=12) Density=Current Pop=(MK,readradii) iop(6/33=2) iop(6/42=6)

loop1.cluster123 

   0  1 
C         41.35419       44.01330       13.28120
C         41.17565       44.41098       11.84362
O         42.14002       44.80200       11.20707
H         41.81446       44.84139       13.85951
H         40.38090       43.75923       13.75375
H         42.00821       43.11915       13.33059
N         39.95070       44.31644       11.26242
C         39.68277       44.66674        9.86961
C         38.71695       45.84171        9.76880
O         38.18720       46.08133        8.69377
C         39.22329       43.41588        9.07458
C         38.01741       42.65914        9.57906
O         37.65185       41.65892        8.98229
O         37.34521       43.05007       10.67706
H         39.16876       43.98276       11.84103
H         40.60555       45.00217        9.35166
H         40.07031       42.70197        9.06072
H         39.02893       43.71348        8.02061
N         38.47730       46.64727       10.84844
C         37.59338       47.81205       10.82449
C         38.31855       48.96670       11.51035
O         38.52011       48.86261       12.71272
C         36.31870       47.45205       11.62747
C         35.50509       46.33675       10.95203
C         34.69364       46.85804        9.75302
C         34.13869       45.71182        8.89743
N         35.18271       45.14672        8.03661
H         38.93792       46.43020       11.74402
H         37.28960       48.07750        9.79999
H         35.66880       48.33746       11.79070
H         36.64749       47.07649       12.62268
H         34.77483       45.91595       11.67771
H         36.18780       45.51000       10.68110
H         35.27516       47.52517        9.08515
H         33.85683       47.45992       10.17171
H         33.33802       46.11617        8.24160
H         33.69028       44.92493        9.54458
H         35.96952       44.75403        8.59688
H         34.77692       44.38206        7.45276
H         35.54888       45.89079        7.39635
N         38.80242       50.08312       10.87928
C         38.76500       50.41598        9.45457
C         37.38510       50.90243        9.03975
O         36.42501       50.57743        9.72277
C         39.43799       49.33692        8.56454
C         40.74815       48.90541        9.15150
O         41.51944       49.73721        9.60258
O         41.07748       47.60578        9.22055
H         39.30467       50.76009       11.47546
H         39.40834       51.32052        9.36777
H         39.64285       49.71904        7.55215
H         38.81406       48.45110        8.40477
N         37.17778       51.77385        8.00495
C         38.21320       52.32403        7.13825
C         37.57242       52.76565        5.83697
O         36.76261       53.68066        5.88528
H         36.21303       52.11583        7.86744
H         39.01464       51.60406        6.95893
H         38.68812       53.20593        7.62674
N         37.83679       52.18919        4.62252
C         38.78480       51.09685        4.38846
C         38.32798       49.77688        5.01153
O         37.23210       49.68451        5.54639
C         38.96308       50.81971        2.86413
C         39.38664       51.99813        2.02641
O         38.55339       53.03785        1.83514
O         40.45852       51.97583        1.44300
H         37.33766       52.57803        3.81190
H         39.77386       51.39386        4.80335
H         38.01779       50.41699        2.44086
H         39.74306       50.03966        2.73348
N         39.14312       48.68932        4.91387
C         38.78550       47.36268        5.38498
C         39.93996       46.44434        5.07116
O         40.12745       46.10626        3.91243
H         40.07082       48.81563        4.48301
H         37.86428       46.98876        4.88304
H         38.59256       47.39754        6.47000
N         40.81565       46.07850        6.04990
C         42.04906       45.35731        5.74361
C         42.64662       44.75897        7.00617
O         42.87111       45.46668        7.96720
C         43.05735       46.27815        4.99989
C         44.31714       45.52088        4.57808
O         43.43856       47.36819        5.80188
H         40.63108       46.37546        7.01748
H         41.79749       44.51470        5.06571
H         42.59071       46.63693        4.05456
H         42.81016       48.11107        5.61086
H         44.95929       46.15783        3.93634
H         44.90944       45.26425        5.47241
H         44.05255       44.59914        4.01445
N         42.94662       43.43178        7.03465
C         43.47236       42.75068        8.22241
C         45.00245       42.72115        8.23769
O         45.57236       42.31173        9.24344
C         42.84443       41.31166        8.28536
C         43.07864       40.53662        9.60647
C         43.32831       40.40867        7.12519
C         42.45181       41.18769       10.83508
H         42.81151       42.89763        6.17197
H         43.13776       43.32378        9.11268
H         41.74552       41.42495        8.17043
H         44.15902       40.35986        9.78670
H         42.59448       39.54066        9.50207
H         44.41474       40.19883        7.21536
H         42.78032       39.44294        7.14644
H         43.14165       40.83479        6.12282
H         42.96534       42.13405       11.09266
H         41.37070       41.37562       10.66541
H         42.54876       40.49258       11.69665
N         45.74218       43.08014        7.14734
C         47.18859       42.87605        7.07266
C         48.02818       43.75688        8.01397
O         49.20974       43.49123        8.15636
C         47.67069       43.05020        5.60389
C         49.03886       42.39305        5.36681
O         47.69688       44.41787        5.26918
H         45.24492       43.35594        6.29147
H         47.34448       41.81170        7.35563
H         46.95038       42.52264        4.93720
H         48.03991       44.49492        4.34041
H         48.97871       41.31652        5.63643
H         49.31363       42.46367        4.29453
H         49.84442       42.87229        5.95300
N         47.49592       44.83459        8.66279
C         48.27576       45.74646        9.51707
C         49.32048       46.53141        8.71425
O         49.56850       46.20098        7.56251
C         48.96589       45.02561       10.71953
C         48.13129       43.91860       11.37711
O         49.30107       45.98314       11.69305
H         46.49681       45.04886        8.53672
H         47.54944       46.48267        9.91141
H         49.89054       44.53599       10.33660
H         50.02075       45.60031       12.25765
H         48.73877       43.42720       12.16768
H         47.21273       44.31698       11.84336
H         47.86844       43.13008       10.64249
N         49.97152       47.59893        9.27532
C         51.08116       48.28876        8.62635
C         50.80066       49.62999        7.94510
O         51.55873       49.90747        7.02401
C         52.28554       48.42715        9.59379
C         53.03714       47.11337        9.86442
C         53.80473       46.61751        8.62266
C         54.55564       45.31678        8.92169
N         55.02396       44.68850        7.68624
H         49.72104       47.88404       10.22729
H         51.39856       47.68356        7.75647
H         51.90723       48.84238       10.55370
H         53.03340       49.14873        9.19984
H         52.32115       46.33666       10.21066
H         53.77694       47.29503       10.67454
H         54.53141       47.38949        8.27489
H         53.09493       46.41722        7.80034
H         53.87054       44.60546        9.43088
H         55.41309       45.52925        9.59971
H         55.63460       45.33892        7.14147
H         55.55920       43.82313        7.92487
H         54.19784       44.41299        7.10456
N         49.85561       50.56835        8.26186
C         48.86298       50.61308        9.32478
C         49.49597       50.61683       10.70056
O         49.12287       49.83098       11.56153
C         47.69020       49.62711        9.10573
C         46.35715       50.32756        9.38013
C         45.21586       49.37958        9.29745
O         45.07856       48.39170       10.19712
O         44.36939       49.52106        8.42923
H         49.87340       51.41617        7.67032
H         48.42035       51.63142        9.22143
H         47.78132       48.73909        9.75003
H         47.65908       49.29042        8.04459
H         46.22477       51.11980        8.60689
H         46.34760       50.80332       10.38220
N         50.49321       51.50260       10.96627
C         51.17327       51.53633       12.24067
H         52.00466       52.27132       12.19541
H         50.47053       51.83522       13.04648
H         51.60159       50.53682       12.46610
H         50.79562       52.15702       10.22910
Ca        43.18185       47.28993        9.87180
O         44.87110       45.29629       10.89110
H         45.69997       45.83090       10.87108
H         45.15638       44.37531       10.67886
O         42.85487       47.91267       12.61544
H         43.11094       47.27590       13.32850
H         42.13461       48.46380       13.01134

Ca 1.70



