%chk=loop1.cluster97.chk
%nprocshared=48
%mem=10GB
%nosave
#b3lyp/svp scf=(tight,noincore) Test 
#IOP(5/87=12) Density=Current Pop=(MK,readradii) iop(6/33=2) iop(6/42=6)

loop1.cluster97 

   0  1 
C         39.24659        0.74311       38.33611
C         38.40402       -0.48769       38.49814
O         38.12649       -1.16201       37.52310
H         40.23026        0.46208       37.90541
H         38.73620        1.46783       37.67156
H         39.43309        1.23407       39.31645
N         37.97677       -0.85471       39.72972
C         37.26146       -2.09845       40.00425
C         35.78491       -2.08154       39.61119
O         35.07063       -2.99656       39.99517
C         37.50672       -2.52104       41.48141
C         37.08007       -1.57802       42.57734
O         37.57515       -0.46643       42.68053
O         36.24523       -2.01922       43.53540
H         38.26485       -0.25966       40.51303
H         37.72094       -2.92563       39.42968
H         38.59945       -2.67780       41.60266
H         37.00884       -3.49588       41.66212
N         35.25268       -1.06872       38.86172
C         33.82004       -0.91344       38.67143
C         33.43235       -0.73792       37.18558
O         33.25190        0.40506       36.78706
C         33.42057        0.35074       39.48253
C         33.78298        0.23219       40.97898
C         33.38428        1.50680       41.73609
C         33.63809        1.45474       43.25471
N         35.00124        1.04667       43.58465
H         35.85223       -0.30935       38.51976
H         33.24553       -1.73200       39.13091
H         32.32553        0.51722       39.38735
H         33.94834        1.24102       39.06768
H         34.88334        0.10218       41.07979
H         33.27750       -0.65370       41.41615
H         32.30164        1.70599       41.58704
H         33.96120        2.35503       41.30770
H         32.92657        0.75129       43.74258
H         33.44630        2.47080       43.66286
H         35.21434        1.28233       44.58046
H         35.04974        0.01292       43.48568
H         35.70378        1.50377       42.95975
N         33.19443       -1.75992       36.28931
C         33.30632       -3.21150       36.47629
C         32.35802       -3.74192       37.55713
O         31.59135       -2.94687       38.08420
C         34.81007       -3.62731       36.55627
C         35.21737       -4.69143       35.54148
O         34.41330       -5.14574       34.74036
O         36.49410       -5.10744       35.47344
H         32.88405       -1.46676       35.34807
H         32.89978       -3.63824       35.53707
H         35.08272       -3.93025       37.58537
H         35.44541       -2.75321       36.29893
N         32.27849       -5.04870       37.95311
C         33.03853       -6.16399       37.39593
C         32.78488       -7.42363       38.19847
O         31.66276       -7.61774       38.63694
H         31.60865       -5.25311       38.70969
H         34.11078       -5.96407       37.43073
H         32.70626       -6.34121       36.34923
N         33.73081       -8.38642       38.39962
C         35.09526       -8.41357       37.87533
C         36.03482       -7.40051       38.52516
O         36.75797       -6.72469       37.81224
C         35.67553       -9.85072       37.99135
C         35.78919      -10.42412       39.39930
O         34.70272      -10.57219       40.17639
O         36.85908      -10.82630       39.81748
H         33.39820       -9.21758       38.90208
H         35.06738       -8.21686       36.77601
H         36.66278       -9.86394       37.48172
H         35.01572      -10.52716       37.40700
N         36.08148       -7.25925       39.88254
C         37.00596       -6.33235       40.53333
C         38.45741       -6.79239       40.49374
O         39.32336       -6.03894       40.92597
H         35.41962       -7.78377       40.46602
H         36.72040       -6.21701       41.59982
H         36.90713       -5.33667       40.04768
N         38.80563       -8.02001       40.01000
C         40.18850       -8.46910       39.84530
C         40.90394       -7.60695       38.83628
O         40.29131       -7.18098       37.86493
C         40.24879       -9.96170       39.39450
C         41.66195      -10.47008       39.10547
O         39.53527      -10.16512       38.20994
H         38.05230       -8.65935       39.74135
H         40.71547       -8.39919       40.82441
H         39.82813      -10.58205       40.22157
H         38.59549      -10.30627       38.44273
H         41.61506      -11.56213       38.90397
H         42.05262       -9.98587       38.18143
H         42.35529      -10.27862       39.94626
N         42.23291       -7.35263       38.98234
C         42.98345       -6.58779       38.00582
C         44.37166       -7.14966       37.78738
O         45.22673       -7.04306       38.65664
C         42.97016       -5.07659       38.33800
C         43.95693       -4.31213       37.41898
C         43.24446       -4.78247       39.82694
C         43.51746       -2.88117       37.15446
H         42.73056       -7.72889       39.80494
H         42.46994       -6.66649       37.01950
H         41.93474       -4.74490       38.12114
H         44.00523       -4.79042       36.41870
H         44.98183       -4.34834       37.85630
H         42.47059       -5.26400       40.46400
H         44.23820       -5.16558       40.13890
H         43.20229       -3.69362       40.02856
H         43.38914       -2.30827       38.09263
H         44.27376       -2.38258       36.51243
H         42.55381       -2.90709       36.59900
N         44.66283       -7.72696       36.59008
C         46.00224       -8.10391       36.16733
C         46.29778       -7.55208       34.76507
O         47.31671       -7.90850       34.19422
C         46.12863       -9.64343       36.22055
C         45.25171      -10.35516       35.18617
O         45.77648      -10.09829       37.50264
H         43.88705       -7.89918       35.93106
H         46.76655       -7.70236       36.87070
H         47.18217       -9.93917       36.00903
H         46.46165       -9.75103       38.13264
H         45.59219      -10.10868       34.15874
H         45.33778      -11.45251       35.32254
H         44.18511      -10.07197       35.29205
N         45.43570       -6.67132       34.15891
C         45.54405       -6.17257       32.79276
C         45.08269       -7.19929       31.78206
O         45.24535       -8.39397       31.99265
C         46.93136       -5.59413       32.39576
C         47.50295       -4.62689       33.43723
O         46.85949       -4.96844       31.13536
H         44.63247       -6.31069       34.68751
H         44.80496       -5.34076       32.72890
H         47.66245       -6.42341       32.29421
H         46.44311       -4.07412       31.25345
H         47.70077       -5.15599       34.39158
H         48.46655       -4.21949       33.06372
H         46.79905       -3.78975       33.62310
N         44.56109       -6.76088       30.60348
C         44.29993       -7.61854       29.46575
C         42.86979       -7.71178       28.92619
O         42.66937       -8.66458       28.18348
C         45.28413       -7.20864       28.34217
C         46.65066       -7.85135       28.60187
C         47.71058       -7.44009       27.58098
C         48.98403       -8.26651       27.81280
N         49.98375       -8.00538       26.78057
H         44.47899       -5.75398       30.47544
H         44.50690       -8.67714       29.74403
H         45.35847       -6.09719       28.29594
H         44.94193       -7.55913       27.34505
H         46.49969       -8.95152       28.52233
H         47.01647       -7.61319       29.62347
H         47.93747       -6.35469       27.68777
H         47.33153       -7.62808       26.55405
H         48.73631       -9.35272       27.79560
H         49.39934       -8.02221       28.81587
H         49.66205       -8.41499       25.87296
H         50.14104       -6.97816       26.67015
H         50.88214       -8.46417       27.05569
N         41.80689       -6.87010       29.14065
C         41.70411       -5.58615       29.83050
C         42.68862       -4.54413       29.34723
O         43.21565       -3.78989       30.15447
C         41.47894       -5.68510       31.36173
C         40.33702       -6.67333       31.67087
C         39.60916       -6.38627       32.95315
O         38.40559       -6.18110       32.90566
O         40.21948       -6.32005       34.14985
H         40.93824       -7.14767       28.65253
H         40.73446       -5.16776       29.47179
H         41.17977       -4.66395       31.69146
H         42.38409       -5.97425       31.93342
H         40.72549       -7.71182       31.64394
H         39.55838       -6.58347       30.87985
N         42.97429       -4.44208       28.01826
C         43.89964       -3.46092       27.48881
H         44.78433       -3.98246       27.06867
H         43.40275       -2.88693       26.67970
H         44.24715       -2.74266       28.26059
H         42.53997       -5.10195       27.35569
Ca        38.68526       -5.62952       35.65210
O         38.81291       -8.45485       35.49336
H         38.80456       -9.18601       34.82969
H         39.12296       -8.88485       36.32199
O         39.35016       -4.23513       38.04764
H         39.93400       -3.50125       38.36053
H         39.37526       -4.89214       38.78202
O         39.29496       -3.02739       35.23476
H         39.24630       -2.79459       34.27660
H         38.64857       -2.41676       35.65647

Ca 1.70



