%chk=loop4.cluster11.chk
%nprocshared=48
%mem=10GB
%nosave
#b3lyp/svp scf=(tight,noincore) Test 
#IOP(5/87=12) Density=Current Pop=(MK,readradii) iop(6/33=2) iop(6/42=6)

loop4.cluster11 

   -3  1 
C         44.80842       45.89622       61.78019
C         45.39703       45.77458       63.15780
O         46.46195       45.19604       63.28694
H         43.84812       46.45148       61.79548
H         45.51680       46.43877       61.11734
H         44.62794       44.88540       61.35689
N         44.76777       46.33337       64.23594
C         45.28164       46.29871       65.60729
C         46.70264       46.80790       65.73344
O         47.56505       46.11766       66.24840
C         44.97653       44.98096       66.35629
C         45.20062       43.66216       65.65449
O         44.24530       42.91308       65.52438
O         46.39879       43.24816       65.18716
H         43.89430       46.85528       64.07116
H         44.70301       47.04696       66.19440
H         43.88587       45.01500       66.58958
H         45.49210       44.99390       67.34127
N         46.97118       48.08894       65.37147
C         48.27772       48.71861       65.50307
C         48.79193       48.66048       66.93485
O         49.83247       48.06120       67.19214
C         49.31634       48.20993       64.46410
C         50.53246       49.18551       64.46461
C         48.68911       48.17787       63.05650
C         51.73772       48.66737       63.70284
H         46.19842       48.66750       65.01113
H         48.13460       49.79462       65.25344
H         49.63514       47.18170       64.74190
H         50.90160       49.38344       65.49143
H         50.21801       50.16547       64.04264
H         49.40934       47.83279       62.29086
H         47.83084       47.47923       63.02671
H         48.32739       49.19068       62.77412
H         51.50724       48.42117       62.64930
H         52.51416       49.45553       63.71077
H         52.13004       47.78009       64.23440
N         48.16105       49.37410       67.90118
C         48.82034       49.70431       69.15869
C         47.84763       49.72073       70.32430
O         46.71992       50.15852       70.13457
C         49.47814       51.09613       68.99353
C         48.50074       52.23091       68.78805
O         48.45021       53.23790       69.67970
O         47.76913       52.25684       67.81111
H         47.31041       49.89303       67.63316
H         49.65245       48.99650       69.36600
H         50.17116       51.06658       68.12252
H         50.08388       51.31440       69.89644
N         48.21250       49.39722       71.59908
C         49.53153       48.93421       72.00418
C         49.63721       47.42870       71.87112
O         48.69336       46.75934       72.26709
H         47.51892       49.54291       72.34868
H         49.60141       49.10496       73.09977
H         50.33113       49.56416       71.57802
N         50.75314       46.77525       71.42781
C         52.03806       47.40110       71.12333
C         52.72204       46.57512       70.03317
O         52.75587       45.36057       70.18048
C         52.87845       47.39935       72.41553
C         54.13253       48.21340       72.27594
O         55.22626       47.68448       72.38687
O         54.05026       49.54259       72.07016
H         50.73431       45.74424       71.49881
H         51.89396       48.43976       70.80651
H         53.11601       46.35135       72.70426
H         52.28998       47.85236       73.24378
N         53.27797       47.09398       68.89927
C         53.53071       48.49656       68.60672
C         55.00796       48.70360       68.30855
O         55.36525       49.74458       67.77532
H         53.61681       46.41899       68.19397
H         53.24154       49.20006       69.40793
H         52.95541       48.75191       67.69333
N         55.93112       47.75408       68.65298
C         57.35613       47.89231       68.38110
C         57.70993       47.59780       66.93001
O         58.85378       47.81279       66.55106
C         58.15555       47.02388       69.37650
C         57.97239       45.49246       69.24662
C         58.59076       44.76348       70.42514
N         58.74113       43.42020       70.39908
O         58.94664       45.38439       71.41715
H         55.62180       46.94095       69.19771
H         57.64623       48.94376       68.60470
H         57.82689       47.34968       70.38689
H         59.24233       47.24343       69.28143
H         58.45514       45.17349       68.30118
H         56.90721       45.18330       69.19731
H         58.46760       42.87419       69.57166
H         59.15759       42.93126       71.20596
N         56.78565       47.08402       66.06304
C         57.08182       46.83551       64.66034
C         57.48191       45.38484       64.46544
O         56.67249       44.49468       64.68608
C         55.85093       47.20097       63.78003
C         56.09459       46.92321       62.28759
C         55.46602       48.67531       63.95650
H         55.84429       46.84343       66.40335
H         57.92531       47.48538       64.33192
H         54.98485       46.57735       64.09587
H         56.30757       45.84815       62.11085
H         55.18348       47.18107       61.71284
H         56.93134       47.53484       61.89301
H         56.31329       49.34029       63.68801
H         54.61541       48.92028       63.29210
H         55.15811       48.87991       65.00316
N         58.72246       45.09367       63.97858
C         59.14785       43.76304       63.56385
C         58.24821       43.24390       62.44966
O         58.20835       43.88407       61.40777
C         59.36165       42.77502       64.72800
C         60.35751       43.28031       65.73781
N         60.02274       43.34177       67.04455
O         61.47877       43.61178       65.38055
H         59.38244       45.86977       63.81635
H         60.15621       43.86989       63.10185
H         59.77951       41.83552       64.29722
H         58.40481       42.53470       65.23271
H         59.08971       43.03600       67.35327
H         60.69977       43.67695       67.74486
N         57.51643       42.08994       62.57110
C         56.89875       41.45064       61.41355
C         55.38343       41.56237       61.35580
O         54.74864       41.98054       62.31399
C         57.23201       39.93696       61.44116
C         58.68547       39.55223       61.56082
C         59.02547       38.38946       62.27681
C         59.70044       40.29625       60.93810
C         60.35656       37.98035       62.37044
C         61.03313       39.88857       61.04105
C         61.36429       38.72677       61.75457
O         62.64540       38.31831       61.84715
H         57.49752       41.57845       63.46353
H         57.28533       41.91228       60.47997
H         56.83298       39.42905       60.54153
H         56.69487       39.49636       62.31491
H         58.25561       37.79186       62.75172
H         59.46626       41.18805       60.37477
H         60.60366       37.07830       62.91684
H         61.80701       40.47175       60.56003
H         63.36544       38.80638       61.42346
N         54.75377       41.12340       60.21814
C         53.31602       40.90706       60.02814
C         52.42972       42.14588       60.00499
O         51.26959       42.01339       59.64004
C         52.80288       39.83479       61.00902
C         53.56804       38.51380       60.80119
C         53.25079       37.50469       61.85995
O         54.22820       37.06771       62.67840
O         52.11798       37.06894       61.98107
H         55.35718       40.81803       59.43899
H         53.20419       40.48494       59.00274
H         51.71868       39.64644       60.84515
H         52.93754       40.19997       62.04876
H         54.65633       38.70063       60.85023
H         53.33898       38.09579       59.79542
N         52.90681       43.38404       60.29871
C         52.12049       44.59542       60.09818
C         52.45079       45.14449       58.72572
O         51.54461       45.47380       57.97142
C         52.48271       45.64597       61.16236
C         52.29891       45.18311       62.61751
C         50.86669       44.98113       63.03542
O         50.58798       44.66103       64.30821
O         49.94974       45.11676       62.24250
H         53.89332       43.49567       60.55490
H         51.02763       44.39294       60.15351
H         51.89265       46.57572       60.99526
H         53.54986       45.89430       61.02734
H         52.73987       45.95964       63.26582
H         52.87422       44.25220       62.80290
N         53.74988       45.21266       58.31556
C         54.12878       45.68541       57.00573
H         55.21863       45.52127       56.86089
H         53.58504       45.12146       56.21840
H         53.91567       46.77016       56.91939
H         54.49845       44.87741       58.93826
Ca        48.46315       44.12361       64.83556
O         50.22205       41.88574       64.64903
H         51.15939       41.56995       64.66078
H         49.67605       41.08601       64.85178
O         47.67583       42.24014       62.74704
H         48.25635       41.97635       61.99052
H         46.78141       42.37883       62.34585
O         49.01133       43.57326       67.37630
H         49.44601       44.18059       68.02380
H         48.21560       43.21513       67.84249

Ca 1.70



