%chk=loop2.cluster127.chk
%nprocshared=48
%mem=10GB
%nosave
#b3lyp/svp scf=(tight,noincore) Test 
#IOP(5/87=12) Density=Current Pop=(MK,readradii) iop(6/33=2) iop(6/42=6)

loop2.cluster127 

   -2  1 
C        118.87045       -0.35334       83.52849
C        119.54908        0.01472       84.81275
O        119.77052        1.19387       85.05308
H        117.89031        0.16124       83.45491
H        119.51473       -0.04091       82.68020
H        118.70408       -1.44899       83.45900
N        119.94278       -0.95638       85.68626
C        120.70357       -0.65218       86.89339
C        119.83421       -0.07973       88.01405
O        120.35517        0.17888       89.08983
C        121.50597       -1.90534       87.31563
C        122.70345       -1.57170       88.16686
O        122.92121       -2.22626       89.32151
O        123.52662       -0.75995       87.76971
H        119.79099       -1.94385       85.42734
H        121.46535        0.10901       86.61493
H        121.93219       -2.35482       86.39348
H        120.85152       -2.66556       87.79688
N        118.50635        0.19356       87.81015
C        117.68920        0.91028       88.77700
C        116.20917        0.53121       88.60992
O        115.72949        0.59562       87.48713
C        117.82508        2.41118       88.52054
H        118.09674        0.03746       86.88291
H        118.11220        0.77101       89.77876
H        117.52868        2.66418       87.48091
H        117.18155        2.97539       89.23121
H        118.87783        2.72695       88.68156
N        115.38066        0.19574       89.64700
C        115.76557        0.13708       91.04392
C        115.43170       -1.22619       91.60385
O        114.26649       -1.53951       91.80325
C        115.07054        1.28460       91.79666
C        115.54436        1.47837       93.21093
O        116.47171        0.82433       93.66296
O        114.97015        2.42706       93.97028
H        114.38650        0.02778       89.42945
H        116.83636        0.28797       91.18388
H        113.97410        1.11751       91.78059
H        115.27293        2.23881       91.26188
N        116.41817       -2.12175       91.83871
C        116.15707       -3.41942       92.43961
C        117.38719       -4.30477       92.42129
O        118.41522       -3.89538       91.89214
H        117.37840       -1.85910       91.56587
H        115.35011       -3.94549       91.88265
H        115.81646       -3.24522       93.48478
N        117.40130       -5.54743       92.96876
C        116.30147       -6.12569       93.73549
C        115.32297       -6.86413       92.83654
O        115.74574       -7.55854       91.92421
C        116.91333       -7.07393       94.78707
C        115.91422       -7.60455       95.78755
N        116.03553       -7.29650       97.10061
O        115.00318       -8.32918       95.41796
H        118.29256       -6.06580       92.93693
H        115.78467       -5.33882       94.32462
H        117.68176       -6.48890       95.33901
H        117.42839       -7.92342       94.28923
H        116.80177       -6.69175       97.43157
H        115.36181       -7.66545       97.78719
N        113.99333       -6.85668       93.14622
C        113.02146       -7.70270       92.45405
C        111.62894       -7.10245       92.32652
O        110.77407       -7.74575       91.73030
H        113.71998       -6.38750       94.01781
H        112.90016       -8.63089       93.05185
H        113.39161       -7.98968       91.44732
N        111.29933       -5.92085       92.91696
C        109.96448       -5.34174       92.90307
C        110.06041       -3.90654       92.45912
O        110.87437       -3.16696       92.98990
C        109.31580       -5.43559       94.30831
C        108.65232       -6.80257       94.48928
O        110.24736       -5.24331       95.34562
H        112.00829       -5.40711       93.45266
H        109.28562       -5.86409       92.19137
H        108.48834       -4.69515       94.39329
H        110.64624       -4.34420       95.23637
H        107.88935       -6.95719       93.69288
H        109.39642       -7.62365       94.43619
H        108.12718       -6.83929       95.46613
N        109.26578       -3.45191       91.45603
C        109.35261       -2.10624       90.90566
C        107.97508       -1.43050       90.86597
O        106.95976       -2.09917       91.01171
C        110.06742       -2.16183       89.51318
C        111.60745       -2.11745       89.70276
C        109.65626       -3.42009       88.70476
C        112.37397       -1.93248       88.39096
H        108.59440       -4.10877       91.02698
H        109.95061       -1.45363       91.58129
H        109.79478       -1.24554       88.94994
H        111.97925       -3.02246       90.23336
H        111.85319       -1.23057       90.32241
H        110.00556       -4.34818       89.21789
H        108.55448       -3.47611       88.59662
H        110.10670       -3.43509       87.69459
H        112.01942       -1.01954       87.86853
H        113.45422       -1.81853       88.60738
H        112.26450       -2.80157       87.71618
N        107.88907       -0.06786       90.76564
C        106.64275        0.69094       90.92984
C        106.65092        2.00449       90.16522
O        107.59266        2.77734       90.27330
C        106.29076        0.98305       92.41599
C        107.46654        1.00092       93.33180
O        107.90430       -0.06322       93.73148
O        108.19855        2.10229       93.52107
H        108.76961        0.46104       90.76797
H        105.78705        0.10294       90.53259
H        105.67439        0.13794       92.78148
H        105.64633        1.88379       92.53761
N        105.52998        2.36502       89.47443
C        105.33743        3.65716       88.82034
C        106.33250        3.82823       87.67456
O        106.42989        2.93277       86.84678
C        103.85954        3.74842       88.35141
C        103.44655        5.06587       87.72773
C        103.93773        5.44504       86.46676
C        102.52814        5.90908       88.38559
C        103.52686        6.64403       85.87914
C        102.12170        7.10954       87.79210
C        102.62077        7.47579       86.54016
H        104.73584        1.70505       89.47552
H        105.46119        4.45099       89.58572
H        103.23668        3.58292       89.26071
H        103.62355        2.92803       87.64080
H        104.62436        4.80750       85.92985
H        102.12544        5.63856       89.35429
H        103.90645        6.92371       84.90552
H        101.41507        7.75414       88.30010
H        102.30099        8.40132       86.07885
N        107.09617        4.96484       87.54472
C        108.07299        5.17518       86.48201
C        109.17838        4.14073       86.37521
O        109.86249        4.11045       85.36138
C        108.75716        6.47659       86.92466
C        107.65245        7.23138       87.62287
C        106.92390        6.12913       88.38765
H        107.50833        5.25573       85.52585
H        109.49683        6.23739       87.72635
H        109.28519        7.02217       86.11443
H        107.98552        8.07832       88.26056
H        106.98184        7.61569       86.82300
H        107.35961        5.91652       89.38564
H        105.86005        6.44445       88.47712
N        109.49383        3.35033       87.43708
C        110.60849        2.40688       87.42211
C        110.34405        1.38320       86.34209
O        111.18817        1.19729       85.47640
C        110.80121        1.78536       88.82761
C        111.19618        2.89530       89.83150
C        111.27636        2.52279       91.27534
O        111.58082        3.38162       92.08625
O        110.91611        1.32053       91.72681
H        108.92853        3.43316       88.28968
H        111.55635        2.94287       87.18462
H        111.62049        1.03717       88.81218
H        109.86308        1.28052       89.11407
H        110.45199        3.71600       89.80849
H        112.18166        3.30522       89.53462
N        109.12804        0.77148       86.26987
C        108.73339       -0.06325       85.15367
H        107.85688        0.40521       84.65405
H        109.53477       -0.17020       84.39252
H        108.44332       -1.06685       85.52110
H        108.42416        0.96342       86.99824
Ca       110.30003        1.47944       93.86964
O        112.58805        1.19573       95.75931
H        112.81796        0.82776       96.64790
H        113.19638        1.96644       95.64610
O        109.90335       -1.23394       95.45009
H        110.31003       -1.79808       96.15276
H        109.09307       -1.72938       95.17358
O        112.31501       -0.43187       93.43852
H        111.60565       -1.06712       93.68320
H        112.29280       -0.44309       92.45356
O        110.63759        4.03139       94.97574
H        109.70361        4.35404       95.03682
H        111.02264        4.19391       95.87246

Ca 1.70



