%chk=loop2.cluster65.chk
%nprocshared=48
%mem=10GB
%nosave
#b3lyp/svp scf=(tight,noincore) Test 
#IOP(5/87=12) Density=Current Pop=(MK,readradii) iop(6/33=2) iop(6/42=6)

loop2.cluster65 

   -2  1 
C         67.16031      111.90300       23.27981
C         66.84063      113.14496       24.05925
O         67.53525      113.45920       25.01431
H         68.10217      111.43372       23.63221
H         66.32961      111.17818       23.42228
H         67.24578      112.13575       22.19769
N         65.77655      113.90576       23.69045
C         65.28226      115.04690       24.45959
C         63.76274      115.01886       24.48991
O         63.19016      115.09874       25.56293
C         65.78152      116.38055       23.88285
C         65.20408      117.53974       24.66181
O         65.38848      117.62117       25.99493
O         64.53326      118.38618       24.09345
H         65.29031      113.64191       22.82208
H         65.66645      115.00707       25.50555
H         65.50661      116.47348       22.81096
H         66.88960      116.41583       23.96855
N         63.04929      114.90677       23.32966
C         61.59175      114.87575       23.25775
C         60.96392      113.82666       24.19220
O         59.93493      114.08897       24.80035
C         61.05117      116.29382       23.46477
H         63.55853      114.82827       22.43780
H         61.33510      114.59095       22.21207
H         61.26119      116.64824       24.49496
H         61.55390      116.98500       22.75047
H         59.96021      116.33048       23.26974
N         61.59023      112.63003       24.38884
C         61.14805      111.55904       25.29119
C         60.81027      112.01237       26.70500
O         59.83392      111.54202       27.27333
C         60.02632      110.69006       24.68645
C         60.42068      110.20709       23.33149
O         59.71924      110.43974       22.36033
O         61.57129      109.53245       23.18461
H         62.48737      112.47693       23.90286
H         62.02812      110.88595       25.39886
H         59.06443      111.24390       24.63600
H         59.88269      109.79359       25.33334
N         61.60427      112.90523       27.35247
C         61.36565      113.28829       28.73352
C         61.63088      112.12940       29.65753
O         62.39105      111.24293       29.29050
H         62.39554      113.32170       26.85593
H         60.33036      113.67377       28.85340
H         62.06933      114.10165       29.01543
N         61.08314      112.09741       30.91228
C         61.35429      111.03932       31.88621
C         62.80559      111.02213       32.36279
O         63.14450      110.15563       33.15136
C         60.88207      109.66979       31.34603
C         59.38167      109.66254       31.22834
N         58.78030      109.70843       30.01937
O         58.70127      109.63992       32.24335
H         60.43846      112.85431       31.18697
H         60.76850      111.23700       32.81069
H         61.16289      108.83754       32.02675
H         61.35503      109.45637       30.37021
H         59.33942      109.76470       29.15731
H         57.75187      109.72700       29.95382
N         63.69853      111.98348       31.97306
C         65.06160      112.03325       32.47657
C         66.08033      111.77565       31.39609
O         67.26606      111.84867       31.70418
H         63.42000      112.72854       31.32642
H         65.23417      111.29145       33.28297
H         65.23008      113.04280       32.91129
N         65.72372      111.43873       30.11839
C         66.70355      111.15647       29.08084
C         66.63942      109.71826       28.63783
O         65.59075      109.08739       28.72223
C         66.59500      112.11580       27.88096
C         65.29422      111.97721       27.07981
O         66.71927      113.43536       28.34577
H         64.72919      111.35220       29.87435
H         67.72564      111.30518       29.49327
H         67.44053      111.86224       27.19570
H         67.33209      113.91153       27.72811
H         65.31238      112.67677       26.22478
H         65.18424      110.95183       26.66753
H         64.41245      112.22723       27.69855
N         67.77354      109.11618       28.20501
C         67.84717      107.70165       27.88204
C         66.98721      107.32589       26.70438
O         66.67957      108.16756       25.87556
C         69.31396      107.24398       27.65636
C         69.97561      107.97371       26.44615
C         70.10531      107.43645       28.96188
C         71.43542      107.59025       26.22199
H         68.63321      109.68292       28.18806
H         67.44353      107.14314       28.75775
H         69.29598      106.15113       27.44714
H         69.94874      109.07642       26.57069
H         69.41027      107.73040       25.52088
H         70.29985      108.50953       29.16533
H         69.53838      107.01233       29.81877
H         71.07235      106.89870       28.90992
H         71.81379      108.09868       25.30948
H         72.06014      107.92756       27.07580
H         71.53279      106.49340       26.09437
N         66.60741      106.02808       26.56387
C         65.77444      105.54829       25.47937
C         64.72047      104.66550       26.10405
O         65.07390      103.61235       26.61828
C         66.66298      104.74033       24.51518
C         65.95309      104.27909       23.27545
O         64.72012      104.73782       22.98694
O         66.53145      103.55073       22.48465
H         66.91907      105.34625       27.27274
H         65.31595      106.40205       24.93745
H         67.07691      103.86410       25.05787
H         67.52167      105.37265       24.19488
N         63.41702      105.05312       26.16813
C         62.42520      104.25894       26.88171
C         61.74044      105.13758       27.93494
O         60.59698      105.52752       27.73431
C         61.48524      103.62584       25.84189
C         60.79924      102.39490       26.37953
C         59.40662      102.34790       26.50834
C         61.56533      101.25889       26.71887
C         58.78559      101.18182       26.96880
C         60.94084      100.09703       27.17367
C         59.55102      100.05715       27.29678
H         63.12200      105.93261       25.71841
H         62.90854      103.41427       27.40527
H         62.09146      103.26022       24.98272
H         60.78426      104.38873       25.44081
H         58.80654      103.21027       26.25008
H         62.64467      101.26874       26.61437
H         57.70947      101.14781       27.06445
H         61.53492       99.22567       27.42212
H         59.06702       99.15339       27.64220
N         62.40888      105.55154       29.06351
C         63.75827      105.14281       29.39647
C         63.81602      103.70180       29.85449
O         62.87052      103.22175       30.46536
C         64.14981      106.07374       30.55167
C         63.22022      107.26326       30.35265
C         61.91786      106.57136       29.95828
H         64.42811      105.37088       28.55119
H         63.87161      105.61828       31.52841
H         65.23510      106.32188       30.57074
H         63.17238      107.93010       31.23742
H         63.56447      107.84713       29.47449
H         61.48835      106.07964       30.86060
H         61.17644      107.26331       29.50640
N         64.96878      103.00130       29.70494
C         65.14786      101.66387       30.26000
C         66.63343      101.35722       30.24632
O         67.24855      101.42868       29.19102
C         64.32477      100.60436       29.47701
C         64.02339       99.33967       30.30826
C         65.24371       98.59775       30.76471
O         66.00016       98.09548       29.95004
O         65.49678       98.46866       32.08191
H         65.76599      103.47964       29.26161
H         64.78833      101.68561       31.31368
H         64.81875      100.35696       28.51123
H         63.32566      101.02104       29.23250
H         63.38746       98.64719       29.71418
H         63.43427       99.64729       31.20088
N         67.28662      101.05027       31.39917
C         68.72334      100.88101       31.42966
H         69.21430      101.85821       31.22684
H         69.03998      100.52993       32.43359
H         69.04672      100.14044       30.66851
H         66.75609      100.94098       32.27520
Ca        64.46343      106.33946       21.40188
O         64.89051      108.39387       23.35934
H         65.76296      108.71835       23.69046
H         64.27238      108.51865       24.12193
O         62.31446      108.23357       20.24458
H         61.72103      108.80376       19.69694
H         62.20680      108.58280       21.15954
O         64.65725      104.98692       18.97982
H         64.25471      104.15882       18.61847
H         65.50065      105.10493       18.47602
O         62.28843      106.30848       23.21031
H         62.45317      107.16656       23.67075
H         61.32994      106.33712       22.97242
O         67.16266      106.31237       20.74205
H         67.35819      105.53635       21.31965
H         67.65772      106.12183       19.90868
O         61.86108      105.36169       20.41361
H         60.98017      105.79011       20.55703
H         61.69207      104.65658       19.74120

Ca 1.70



