%chk=loop2.cluster229.chk
%nprocshared=48
%mem=10GB
%nosave
#b3lyp/svp scf=(tight,noincore) Test 
#IOP(5/87=12) Density=Current Pop=(MK,readradii) iop(6/33=2) iop(6/42=6)

loop2.cluster229 

   -2  1 
C         64.06208       75.28811       10.07127
C         62.80244       75.84073       10.65892
O         62.85030       76.83939       11.36266
H         64.86301       75.27119       10.83787
H         63.89587       74.24555        9.72508
H         64.36969       75.90669        9.20314
N         61.61321       75.25469       10.36298
C         60.34783       75.73864       10.88558
C         60.28001       75.46834       12.38218
O         60.19742       74.31362       12.77793
C         59.21867       75.02830       10.11849
C         57.83305       75.49847       10.40569
O         56.90727       74.94374        9.85575
O         57.59131       76.54716       11.20729
H         61.60989       74.46631        9.69729
H         60.27296       76.82045       10.67345
H         59.28511       73.93719       10.32205
H         59.37539       75.18518        9.02752
N         60.36807       76.49310       13.27859
C         60.35260       76.27968       14.72306
C         58.94607       76.02640       15.26811
O         58.80642       75.87626       16.47385
C         60.99125       77.48430       15.43082
H         60.53573       77.44126       12.92470
H         61.00668       75.41370       14.96615
H         62.00961       77.66019       15.01853
H         60.38622       78.40539       15.29735
H         61.10387       77.27516       16.51688
N         57.85937       75.96285       14.43773
C         56.49334       75.74721       14.90910
C         55.90257       74.44107       14.38470
O         54.87535       74.01726       14.89848
C         55.58460       76.88019       14.39099
C         56.18610       78.24228       14.55436
O         56.47480       78.89218       13.56365
O         56.42711       78.74630       15.77719
H         57.99459       76.09107       13.43709
H         56.48116       75.72908       16.02129
H         54.58897       76.83633       14.88140
H         55.43371       76.72720       13.29901
N         56.44627       73.78588       13.31219
C         55.84377       72.59585       12.73686
C         54.52379       72.84168       12.01806
O         53.92115       71.87135       11.58250
H         57.31106       74.12900       12.87666
H         55.72128       71.83365       13.53505
H         56.53310       72.17650       11.97074
N         54.03141       74.10151       11.80006
C         52.80657       74.33604       11.02949
C         53.05139       74.30966        9.51043
O         52.12608       74.55600        8.74899
C         52.13948       75.66179       11.45941
C         51.86082       75.72031       12.94617
N         52.14877       76.83704       13.65544
O         51.33970       74.76697       13.50660
H         54.56078       74.91939       12.12824
H         52.06679       73.54089       11.27146
H         51.16037       75.72580       10.93907
H         52.75166       76.53698       11.15171
H         52.54380       77.66808       13.19195
H         51.93957       76.88225       14.66423
N         54.27467       73.98598        9.00779
C         54.60537       73.89182        7.59580
C         54.54245       75.19249        6.82064
O         54.12455       75.16607        5.67250
H         55.01475       73.72316        9.65965
H         54.00056       73.10334        7.09880
H         55.66696       73.56241        7.53626
N         55.00752       76.35849        7.35639
C         55.18593       77.57910        6.56453
C         56.50839       78.22835        6.89441
O         56.83061       78.40489        8.06055
C         54.07613       78.63237        6.75049
C         52.76874       78.19700        6.08316
O         53.89434       78.92636        8.10851
H         55.29171       76.36911        8.34670
H         55.19125       77.34235        5.47681
H         54.41001       79.55398        6.21610
H         53.07511       79.47790        8.19835
H         52.05701       79.05006        6.09124
H         52.95581       77.93241        5.01906
H         52.32268       77.33196        6.61118
N         57.28925       78.69170        5.88540
C         58.51913       79.42145        6.12163
C         58.22360       80.87717        6.41086
O         57.59522       81.55313        5.61017
C         59.49034       79.20100        4.93430
C         59.89669       77.70383        4.84060
C         60.73716       80.09998        5.01564
C         60.67305       77.16583        6.05626
H         56.96138       78.58760        4.91296
H         59.02507       79.02034        7.01750
H         58.97111       79.47356        3.98732
H         60.52896       77.57162        3.93826
H         58.98925       77.07587        4.70348
H         61.43794       79.85385        4.18995
H         60.45208       81.16671        4.89977
H         61.26063       79.98396        5.98470
H         60.97953       76.11902        5.86307
H         61.58963       77.76077        6.24420
H         60.05510       77.15299        6.97730
N         58.74401       81.42810        7.54130
C         58.67731       82.84121        7.86769
C         60.02454       83.44604        7.50731
O         60.89318       82.72063        7.08401
C         58.32043       82.97004        9.36381
C         56.88332       82.56315        9.61151
O         56.52520       81.35375       10.09895
O         56.00119       83.36753        9.36769
H         59.34176       80.84463        8.13823
H         57.93164       83.36905        7.23560
H         58.42594       84.02539        9.69572
H         59.02725       82.36584        9.97656
N         60.22398       84.78968        7.53776
C         61.45009       85.40251        7.00986
C         62.71858       85.03413        7.79055
O         63.70021       84.69172        7.13610
C         61.23313       86.91962        6.84557
C         62.41095       87.64509        6.24010
C         62.87631       87.33291        4.94749
C         63.03895       88.66662        6.96834
C         63.95723       88.03581        4.40253
C         64.11642       89.36414        6.41994
C         64.57600       89.05015        5.13885
H         59.45232       85.39563        7.84463
H         61.59692       85.03218        5.96986
H         60.97145       87.36610        7.82257
H         60.36090       87.07285        6.17046
H         62.40237       86.55553        4.36107
H         62.68959       88.92319        7.96028
H         64.31351       87.79769        3.40807
H         64.59225       90.15096        6.98962
H         65.40984       89.59543        4.71654
N         62.81775       85.05274        9.16082
C         64.01992       84.64660        9.88279
C         64.47199       83.23928        9.50106
O         65.65689       82.98566        9.36885
C         63.56707       84.66302       11.35319
C         62.46246       85.70375       11.35121
C         61.72877       85.40066       10.04895
H         64.82439       85.39689        9.71131
H         63.07317       83.69959       11.61294
H         64.38851       84.84349       12.08141
H         61.81675       85.70598       12.25585
H         62.94140       86.70295       11.24663
H         61.06446       84.51352       10.15381
H         61.15618       86.29461        9.74591
N         63.52659       82.28348        9.29550
C         63.81266       80.91192        8.87550
C         64.39721       80.90575        7.47305
O         65.40703       80.25504        7.24303
C         62.49968       80.10493        8.94026
C         62.00604       80.05082       10.40161
C         60.65569       79.45368       10.54923
O         60.05359       79.01295        9.58324
O         60.08618       79.43388       11.76714
H         62.54117       82.56025        9.40747
H         64.51821       80.41895        9.57976
H         62.64301       79.06561        8.56959
H         61.73596       80.59651        8.30170
H         61.92473       81.06656       10.83569
H         62.72387       79.47270       11.01958
N         63.80738       81.63536        6.48860
C         64.29910       81.74618        5.13554
H         65.27836       81.24859        4.99725
H         63.55186       81.30773        4.44195
H         64.40720       82.82424        4.88401
H         62.97989       82.17375        6.71743
Ca        57.64190       79.49649       10.67847
O         57.63609       81.43415       12.97112
H         56.65916       81.38816       13.12878
H         58.04192       81.14391       13.82638
O         55.11710       78.44140       10.97172
H         54.42623       78.75304       11.60590
H         54.61066       78.09707       10.19943

Ca 1.70



