%chk=loop3.cluster69.chk
%nprocshared=48
%mem=10GB
%nosave
#b3lyp/svp scf=(tight,noincore) Test 
#IOP(5/87=12) Density=Current Pop=(MK,readradii) iop(6/33=2) iop(6/42=6)

loop3.cluster69 

   0  1 
C         62.33365       20.73708        5.56711
C         62.52053       21.03738        4.10625
O         62.02477       20.29178        3.27480
H         61.25630       20.72457        5.82625
H         62.77666       19.74221        5.78859
H         62.84743       21.48639        6.20760
N         63.28741       22.09327        3.72308
C         63.65538       22.35789        2.33461
C         63.35777       23.79615        1.93417
O         62.68477       24.50253        2.67141
C         65.13429       21.92561        2.13474
C         66.07119       22.31258        3.24427
O         66.63867       21.34720        3.99565
O         66.32014       23.48418        3.47292
H         63.71812       22.67987        4.45590
H         63.06905       21.74035        1.61984
H         65.55393       22.25697        1.16517
H         65.12612       20.81594        2.10172
N         63.79121       24.25235        0.71692
C         63.58225       25.58122        0.13577
C         64.28905       26.75957        0.78197
O         64.55160       27.72745        0.07517
C         62.11180       25.93283       -0.07416
C         61.41390       24.87491       -0.93054
C         60.11162       25.39969       -1.53935
C         60.40253       26.40327       -2.67869
N         59.18278       26.77171       -3.38913
H         64.28015       23.58369        0.10749
H         64.03169       25.52804       -0.88466
H         62.10668       26.91186       -0.59033
H         61.56944       26.06424        0.88816
H         61.22521       23.98354       -0.29368
H         62.06581       24.55072       -1.77250
H         59.45586       25.84002       -0.75601
H         59.59206       24.52644       -1.98563
H         61.09801       25.91986       -3.40100
H         60.89415       27.32880       -2.31016
H         58.59710       27.39684       -2.79074
H         59.44632       27.27930       -4.26495
H         58.64443       25.91466       -3.65111
N         64.53724       26.81812        2.11293
C         65.02081       28.01726        2.76945
C         65.84541       27.62048        3.97235
O         65.50554       26.66085        4.65610
C         63.83460       28.95385        3.10773
C         64.31529       30.27108        3.66631
O         65.12677       30.92676        3.03300
O         63.85039       30.76586        4.83340
H         64.28548       26.03089        2.70537
H         65.68853       28.57012        2.06961
H         63.11571       28.46122        3.79430
H         63.29347       29.17847        2.16100
N         67.02030       28.24570        4.22834
C         67.91839       27.78459        5.26366
C         67.55418       28.31358        6.61790
O         66.58534       29.04945        6.75020
H         67.32053       29.02340        3.62027
H         68.94112       28.13801        5.02634
H         67.94120       26.67107        5.28070
N         68.31713       27.98846        7.69062
C         68.04147       28.47759        9.03175
C         68.12605       29.99099        9.09508
O         67.20875       30.61103        9.60443
C         69.00670       27.85609       10.06172
C         68.79387       26.36787       10.24830
N         69.41850       25.71992       11.25715
O         68.03348       25.75023        9.51607
H         69.12893       27.36383        7.54090
H         67.01412       28.17448        9.34189
H         68.79829       28.32978       11.03959
H         70.06843       28.06594        9.80214
H         70.03621       26.23070       11.90423
H         69.25493       24.71329       11.40838
N         69.21172       30.64660        8.59363
C         69.38012       32.08978        8.69517
C         69.51013       32.52669       10.13621
O         70.09457       31.81097       10.93733
H         69.94418       30.10725        8.11295
H         68.53128       32.61448        8.19903
H         70.30987       32.37852        8.16503
N         68.92161       33.68533       10.54254
C         68.81708       34.09687       11.93602
C         68.03377       33.08080       12.74987
O         68.25621       32.96350       13.94547
C         70.15433       34.51957       12.59167
C         70.80779       35.71883       11.93865
C         72.16250       35.67038       11.57014
C         70.08633       36.91328       11.73925
C         72.78303       36.79374       11.01221
C         70.70374       38.02468       11.16283
C         72.05528       37.96961       10.79983
O         72.66148       39.04136       10.25033
H         68.44046       34.26692        9.83912
H         68.15982       34.99070       11.94712
H         70.85155       33.65497       12.63624
H         69.93910       34.82816       13.63719
H         72.74330       34.77170       11.73512
H         69.04688       36.99126       12.02542
H         73.83178       36.75150       10.74749
H         70.13241       38.93145       11.00639
H         72.17919       39.86228       10.07447
N         67.01736       32.38991       12.14979
C         65.95204       31.66191       12.82638
C         64.95734       32.69771       13.31446
O         63.87880       32.76751       12.74652
C         66.40194       30.55975       13.82943
C         67.34931       29.56905       13.10291
C         65.15611       29.82484       14.37129
C         67.87046       28.43602       13.98839
H         66.89857       32.49645       11.13522
H         65.40989       31.10891       12.02295
H         66.93704       31.01225       14.69049
H         68.23303       30.12947       12.73018
H         66.82970       29.11963       12.22692
H         65.42760       29.04361       15.10901
H         64.48079       30.52998       14.89533
H         64.59113       29.34777       13.54067
H         67.05010       27.75953       14.30286
H         68.59729       27.82268       13.41646
H         68.37965       28.85074       14.88249
N         65.29305       33.62617       14.25695
C         64.45031       34.78347       14.53867
C         63.25983       34.43818       15.42246
O         62.32797       35.22850       15.48639
C         65.31569       35.92791       15.08421
O         66.21592       36.31956       14.07859
H         66.21171       33.57982       14.70437
H         64.03882       35.15197       13.56946
H         65.87845       35.56994       15.97600
H         64.67882       36.79449       15.36064
H         66.82103       36.99571       14.47748
N         63.18119       33.22458       16.04849
C         61.97486       32.70731       16.69105
C         60.79584       32.66540       15.71733
O         59.65461       32.67912       16.15802
C         61.62684       33.43733       17.99826
H         63.99082       32.59232       16.00680
H         62.19336       31.66129       16.99529
H         61.28394       34.47751       17.82421
H         60.81091       32.88064       18.51368
H         62.50152       33.44385       18.68235
N         61.00611       32.58518       14.36844
C         59.92862       32.66358       13.39056
C         59.51127       31.30429       12.87441
O         60.30319       30.37116       12.87790
C         60.36187       33.52515       12.19540
H         61.96469       32.50873       14.02048
H         59.04198       33.14870       13.85266
H         61.24669       33.07392       11.69122
H         59.54151       33.59259       11.44855
H         60.62864       34.55041       12.52417
N         58.23948       31.14617       12.39720
C         57.72598       29.92772       11.77688
C         57.82216       28.69118       12.65950
O         57.71406       27.58903       12.13796
C         58.35526       29.69941       10.38041
C         58.03150       30.87095        9.43672
C         58.37241       30.54940        8.01083
O         57.49380       30.52779        7.16253
O         59.64211       30.28796        7.65917
H         57.59743       31.95092       12.45353
H         56.64033       30.07088       11.57910
H         57.89057       28.78703        9.94458
H         59.45304       29.53169       10.44318
H         58.57782       31.78356        9.75649
H         56.94010       31.07927        9.48420
N         57.95840       28.79083       14.01281
C         58.11345       27.62709       14.86393
H         59.04690       27.74061       15.45243
H         57.25162       27.54505       15.55764
H         58.19497       26.68199       14.28534
H         57.94969       29.71674       14.46390
Ca        62.10275       30.02240        6.06871
O         64.23751       30.32498        8.11103
H         64.45404       29.97958        7.21175
H         64.41528       29.56335        8.71627
O         59.88029       27.72120        6.15750
H         59.20970       28.22939        5.63595
H         59.37876       27.38819        6.94340
O         61.86879       28.59061        8.90828
H         62.16124       27.65157        9.02117
H         62.10832       29.02949        9.76223
O         60.82784       29.98617        3.63867
H         60.88971       30.89325        3.24900
H         59.95358       29.97046        4.10165
O         61.85498       32.01466        8.32398
H         61.36488       32.83602        8.07109
H         62.61571       32.33518        8.86921
O         61.61029       32.80607        5.28944
H         61.85095       33.61611        5.80411
H         62.11204       32.89308        4.44079
O         63.19897       27.63583        6.53564
H         63.88173       27.45226        7.22605
H         63.49986       27.14926        5.73470

Ca 1.70



