%chk=holoCaM_loop3_40.0.chk
%nprocshared=48
%mem=10GB
%nosave
#b3lyp/svp scf=(tight,noincore) Test 
#IOP(5/87=12) Density=Current Pop=(MK,readradii) iop(6/33=2) iop(6/42=6)

holoCaM_loop3_40.0 

   0   1
   C     85.92000000    33.53000000    26.13000000
   C     87.40000000    33.19000000    26.27000000
   O     87.74000000    32.18000000    26.89000000
   H     85.36700000    33.09000000    26.96000000
   H     85.79300000    34.61200000    26.14200000
   H     85.54200000    33.13000000    25.18900000
   N     88.27000000    34.13000000    25.91000000
   C     89.69000000    34.14000000    26.21000000
   C     89.93000000    34.72000000    27.59000000
   O     89.67000000    35.88000000    27.89000000
   C     90.40000000    34.83000000    25.05000000
   C     91.92000000    34.94000000    25.12000000
   O     92.47000000    35.87000000    24.48000000
   O     92.52000000    34.35000000    26.04000000
   H     87.95000000    34.94000000    25.38000000
   H     90.01000000    33.11000000    26.33000000
   H     90.06000000    35.86000000    25.05000000
   H     90.13000000    34.32000000    24.12000000
   N     90.36000000    33.88000000    28.54000000
   C     90.15000000    34.11000000    29.95000000
   C     91.25000000    34.95000000    30.58000000
   O     91.05000000    35.56000000    31.63000000
   C     90.09000000    32.76000000    30.66000000
   C     88.89000000    31.90000000    30.27000000
   C     87.57000000    32.61000000    30.58000000
   C     86.43000000    31.80000000    29.97000000
   N     85.10000000    32.40000000    30.17000000
   H     90.68000000    32.95000000    28.31000000
   H     89.18000000    34.60000000    30.03000000
   H     90.25000000    32.86000000    31.73000000
   H     90.95000000    32.14000000    30.38000000
   H     88.93000000    30.96000000    30.81000000
   H     88.93000000    31.70000000    29.20000000
   H     87.55000000    33.52000000    29.98000000
   H     87.50000000    32.78000000    31.65000000
   H     86.51000000    30.80000000    30.39000000
   H     86.62000000    31.82000000    28.90000000
   H     84.89000000    32.55000000    31.15000000
   H     85.28000000    33.36000000    29.93000000
   H     84.37000000    31.99000000    29.61000000
   N     92.45000000    34.94000000    29.98000000
   C     93.51000000    35.88000000    30.25000000
   C     93.62000000    36.95000000    29.17000000
   O     94.33000000    37.94000000    29.36000000
   C     94.82000000    35.21000000    30.66000000
   C     95.27000000    34.16000000    29.65000000
   O     94.83000000    34.02000000    28.49000000
   O     96.15000000    33.36000000    30.04000000
   H     92.51000000    34.30000000    29.20000000
   H     93.31000000    36.38000000    31.20000000
   H     94.74000000    34.72000000    31.63000000
   H     95.57000000    36.00000000    30.72000000
   N     93.01000000    36.64000000    28.03000000
   C     92.83000000    37.62000000    26.98000000
   C     94.08000000    37.87000000    26.15000000
   O     94.20000000    38.96000000    25.59000000
   H     92.60000000    35.73000000    27.85000000
   H     92.58000000    38.60000000    27.41000000
   H     92.01000000    37.33000000    26.32000000
   N     94.94000000    36.86000000    25.99000000
   C     96.17000000    36.87000000    25.22000000
   C     95.97000000    36.84000000    23.71000000
   O     96.91000000    36.80000000    22.92000000
   C     97.04000000    35.70000000    25.67000000
   C     96.59000000    34.39000000    25.03000000
   N     97.48000000    33.60000000    24.43000000
   O     95.40000000    34.08000000    25.10000000
   H     94.65000000    35.96000000    26.34000000
   H     96.67000000    37.83000000    25.36000000
   H     97.08000000    35.59000000    26.75000000
   H     98.05000000    35.89000000    25.32000000
   H     98.43000000    33.93000000    24.38000000
   H     97.23000000    32.73000000    23.98000000
   N     94.73000000    36.81000000    23.21000000
   C     94.20000000    36.73000000    21.86000000
   C     94.05000000    35.36000000    21.22000000
   O     93.91000000    35.21000000    20.01000000
   H     94.08000000    36.57000000    23.95000000
   H     94.71000000    37.40000000    21.18000000
   H     93.19000000    37.13000000    21.92000000
   N     94.07000000    34.33000000    22.06000000
   C     93.96000000    32.91000000    21.76000000
   C     93.07000000    32.22000000    22.78000000
   O     93.28000000    32.25000000    23.99000000
   C     95.33000000    32.24000000    21.69000000
   C     96.35000000    32.71000000    20.68000000
   C     97.67000000    32.85000000    21.11000000
   C     96.03000000    32.97000000    19.34000000
   C     98.70000000    33.13000000    20.21000000
   C     97.03000000    33.38000000    18.45000000
   C     98.36000000    33.49000000    18.89000000
   O     99.29000000    33.88000000    17.97000000
   H     94.09000000    34.71000000    23.00000000
   H     93.58000000    32.79000000    20.75000000
   H     95.17000000    31.23000000    21.31000000
   H     95.83000000    32.20000000    22.66000000
   H     97.88000000    32.52000000    22.12000000
   H     95.02000000    32.90000000    18.96000000
   H     99.71000000    32.91000000    20.55000000
   H     96.76000000    33.74000000    17.47000000
   H     98.93000000    34.12000000    17.11000000
   N     92.13000000    31.41000000    22.29000000
   C     91.27000000    30.57000000    23.11000000
   C     92.01000000    29.25000000    22.99000000
   O     92.57000000    28.84000000    21.98000000
   C     89.81000000    30.63000000    22.69000000
   C     89.24000000    32.04000000    22.56000000
   C     88.89000000    29.80000000    23.58000000
   C     87.94000000    32.05000000    21.76000000
   H     92.14000000    31.28000000    21.29000000
   H     91.28000000    30.94000000    24.13000000
   H     89.82000000    30.18000000    21.70000000
   H     89.93000000    32.73000000    22.06000000
   H     88.94000000    32.43000000    23.53000000
   H     89.33000000    28.80000000    23.63000000
   H     88.78000000    30.30000000    24.54000000
   H     87.89000000    29.65000000    23.19000000
   H     88.20000000    31.46000000    20.89000000
   H     87.15000000    31.65000000    22.40000000
   H     87.72000000    33.09000000    21.50000000
   N     92.06000000    28.61000000    24.17000000
   C     92.56000000    27.25000000    24.24000000
   C     91.49000000    26.29000000    24.71000000
   O     90.41000000    26.74000000    25.09000000
   C     93.68000000    27.35000000    25.29000000
   O     93.33000000    27.69000000    26.61000000
   H     91.71000000    29.08000000    24.99000000
   H     92.97000000    26.93000000    23.28000000
   H     94.37000000    28.10000000    24.92000000
   H     94.19000000    26.39000000    25.30000000
   H     93.05000000    28.61000000    26.60000000
   N     91.76000000    24.98000000    24.64000000
   C     90.78000000    23.98000000    25.04000000
   C     90.40000000    24.01000000    26.51000000
   O     89.24000000    23.76000000    26.83000000
   C     91.34000000    22.63000000    24.59000000
   H     92.66000000    24.69000000    24.30000000
   H     89.91000000    24.06000000    24.39000000
   H     90.61000000    21.88000000    24.87000000
   H     91.66000000    22.67000000    23.55000000
   H     92.23000000    22.39000000    25.17000000
   N     91.34000000    24.41000000    27.35000000
   C     91.05000000    24.72000000    28.74000000
   C     90.07000000    25.87000000    28.83000000
   O     89.14000000    25.73000000    29.62000000
   C     92.33000000    25.02000000    29.52000000
   H     92.30000000    24.36000000    27.03000000
   H     90.60000000    23.86000000    29.24000000
   H     93.00000000    25.73000000    29.03000000
   H     92.06000000    25.36000000    30.52000000
   H     92.87000000    24.09000000    29.72000000
   N     90.18000000    26.91000000    28.00000000
   C     89.29000000    28.05000000    28.00000000
   C     87.92000000    27.77000000    27.38000000
   O     86.92000000    28.34000000    27.81000000
   C     89.89000000    29.33000000    27.42000000
   C     91.10000000    29.79000000    28.21000000
   C     91.96000000    30.77000000    27.42000000
   O     92.05000000    31.94000000    27.84000000
   O     92.59000000    30.33000000    26.44000000
   H     90.97000000    26.96000000    27.37000000
   H     89.09000000    28.40000000    29.01000000
   H     89.11000000    30.09000000    27.39000000
   H     90.16000000    29.02000000    26.41000000
   H     91.62000000    28.88000000    28.52000000
   H     90.73000000    30.28000000    29.12000000
   N     87.93000000    26.92000000    26.35000000
   C     86.82000000    26.50000000    25.52000000
   H     86.00100000    27.21200000    25.62200000
   H     87.13900000    26.46100000    24.47800000
   H     86.48400000    25.51200000    25.83500000
   H     88.89000000    26.72000000    26.12000000
  Ca     94.27000000    32.39000000    26.67000000
   O     95.97000000    30.99000000    25.29000000
   H     96.06000000    30.32000000    24.61000000
   H     96.63000000    30.76000000    25.94000000

Ca 1.70



