%chk=holoCaM_loop3_35.0.chk
%nprocshared=48
%mem=10GB
%nosave
#b3lyp/svp scf=(tight,noincore) Test 
#IOP(5/87=12) Density=Current Pop=(MK,readradii) iop(6/33=2) iop(6/42=6)

holoCaM_loop3_35.0 

   0   1
   C     38.57000000    43.05000000    24.60000000
   C     39.12000000    41.96000000    25.51000000
   O     38.74000000    41.94000000    26.68000000
   H     37.66000000    43.46200000    25.03600000
   H     39.31100000    43.84200000    24.49200000
   H     38.34400000    42.62700000    23.62100000
   N     39.97000000    41.04000000    25.04000000
   C     40.65000000    40.01000000    25.79000000
   C     41.58000000    40.63000000    26.82000000
   O     42.79000000    40.77000000    26.66000000
   C     41.30000000    38.93000000    24.92000000
   C     41.71000000    37.70000000    25.71000000
   O     41.36000000    37.54000000    26.90000000
   O     42.41000000    36.86000000    25.10000000
   H     40.01000000    40.99000000    24.03000000
   H     39.92000000    39.57000000    26.47000000
   H     42.17000000    39.28000000    24.37000000
   H     40.53000000    38.68000000    24.19000000
   N     41.08000000    41.02000000    27.99000000
   C     41.77000000    41.83000000    28.98000000
   C     43.09000000    41.26000000    29.48000000
   O     44.00000000    41.95000000    29.93000000
   C     40.94000000    42.02000000    30.24000000
   C     39.75000000    42.98000000    30.22000000
   C     39.31000000    43.38000000    31.63000000
   C     38.19000000    44.41000000    31.55000000
   N     37.73000000    44.92000000    32.86000000
   H     40.08000000    40.93000000    28.08000000
   H     41.99000000    42.82000000    28.58000000
   H     41.51000000    42.32000000    31.12000000
   H     40.54000000    41.02000000    30.43000000
   H     38.91000000    42.57000000    29.67000000
   H     40.03000000    43.95000000    29.80000000
   H     40.10000000    43.80000000    32.24000000
   H     38.91000000    42.50000000    32.14000000
   H     37.33000000    43.95000000    31.07000000
   H     38.51000000    45.26000000    30.95000000
   H     38.50000000    45.36000000    33.34000000
   H     36.94000000    45.56000000    32.84000000
   H     37.48000000    44.17000000    33.48000000
   N     43.14000000    39.93000000    29.43000000
   C     44.27000000    39.18000000    29.95000000
   C     44.90000000    38.23000000    28.94000000
   O     45.92000000    37.56000000    29.15000000
   C     43.78000000    38.34000000    31.12000000
   C     42.55000000    37.46000000    30.96000000
   O     42.20000000    36.70000000    31.89000000
   O     41.85000000    37.63000000    29.94000000
   H     42.38000000    39.38000000    29.04000000
   H     45.05000000    39.87000000    30.26000000
   H     43.58000000    39.09000000    31.88000000
   H     44.63000000    37.76000000    31.48000000
   N     44.45000000    38.36000000    27.70000000
   C     45.12000000    37.67000000    26.61000000
   C     45.13000000    36.15000000    26.67000000
   O     46.12000000    35.64000000    26.15000000
   H     43.68000000    39.00000000    27.53000000
   H     46.14000000    38.05000000    26.46000000
   H     44.60000000    37.98000000    25.70000000
   N     44.13000000    35.45000000    27.21000000
   C     44.08000000    34.00000000    27.27000000
   C     43.48000000    33.23000000    26.10000000
   O     43.39000000    32.01000000    26.00000000
   C     43.43000000    33.58000000    28.59000000
   C     41.91000000    33.56000000    28.59000000
   N     41.22000000    32.53000000    29.08000000
   O     41.29000000    34.51000000    28.13000000
   H     43.32000000    35.96000000    27.52000000
   H     45.09000000    33.62000000    27.34000000
   H     43.70000000    34.13000000    29.50000000
   H     43.73000000    32.55000000    28.80000000
   H     41.66000000    31.74000000    29.53000000
   H     40.21000000    32.63000000    29.06000000
   N     43.04000000    34.00000000    25.11000000
   C     42.47000000    33.45000000    23.90000000
   C     40.96000000    33.45000000    23.72000000
   O     40.42000000    33.08000000    22.68000000
   H     43.09000000    35.01000000    25.13000000
   H     42.73000000    32.41000000    23.70000000
   H     42.99000000    34.00000000    23.11000000
   N     40.25000000    33.98000000    24.73000000
   C     38.81000000    34.05000000    24.72000000
   C     38.25000000    35.33000000    25.34000000
   O     38.80000000    35.94000000    26.25000000
   C     38.20000000    32.86000000    25.47000000
   C     38.84000000    31.54000000    25.13000000
   C     39.79000000    31.04000000    26.03000000
   C     38.68000000    30.93000000    23.88000000
   C     40.48000000    29.85000000    25.75000000
   C     39.47000000    29.82000000    23.54000000
   C     40.38000000    29.28000000    24.46000000
   O     41.25000000    28.30000000    24.07000000
   H     40.72000000    34.24000000    25.59000000
   H     38.41000000    34.00000000    23.71000000
   H     37.14000000    32.88000000    25.25000000
   H     38.26000000    33.05000000    26.54000000
   H     40.02000000    31.52000000    26.97000000
   H     37.89000000    31.29000000    23.23000000
   H     41.24000000    29.41000000    26.37000000
   H     39.33000000    29.31000000    22.60000000
   H     40.95000000    27.90000000    23.25000000
   N     37.06000000    35.70000000    24.88000000
   C     36.34000000    36.86000000    25.37000000
   C     35.07000000    36.40000000    26.07000000
   O     34.22000000    35.74000000    25.48000000
   C     36.17000000    37.84000000    24.21000000
   C     37.52000000    38.42000000    23.81000000
   C     35.13000000    38.94000000    24.38000000
   C     37.71000000    39.26000000    22.55000000
   H     36.62000000    35.10000000    24.18000000
   H     36.94000000    37.40000000    26.10000000
   H     35.93000000    37.24000000    23.33000000
   H     38.19000000    37.56000000    23.75000000
   H     37.84000000    39.02000000    24.67000000
   H     34.92000000    39.53000000    23.48000000
   H     34.23000000    38.40000000    24.69000000
   H     35.55000000    39.54000000    25.18000000
   H     37.33000000    38.69000000    21.70000000
   H     37.01000000    40.08000000    22.70000000
   H     38.72000000    39.63000000    22.39000000
   N     35.00000000    36.90000000    27.31000000
   C     33.91000000    36.73000000    28.24000000
   C     32.88000000    37.85000000    28.17000000
   O     33.24000000    38.98000000    27.83000000
   C     34.57000000    36.59000000    29.61000000
   O     33.65000000    35.97000000    30.48000000
   H     35.78000000    37.50000000    27.56000000
   H     33.33000000    35.85000000    27.95000000
   H     34.84000000    37.53000000    30.09000000
   H     35.52000000    36.08000000    29.41000000
   H     34.08000000    35.97000000    31.34000000
   N     31.64000000    37.63000000    28.60000000
   C     30.62000000    38.67000000    28.63000000
   C     31.02000000    39.94000000    29.37000000
   O     30.80000000    41.03000000    28.84000000
   C     29.37000000    38.13000000    29.31000000
   H     31.39000000    36.71000000    28.93000000
   H     30.47000000    38.97000000    27.59000000
   H     29.14000000    37.12000000    28.98000000
   H     29.60000000    38.04000000    30.37000000
   H     28.58000000    38.81000000    28.98000000
   N     31.74000000    39.88000000    30.49000000
   C     32.10000000    41.01000000    31.32000000
   C     33.24000000    41.79000000    30.69000000
   O     33.44000000    42.95000000    31.05000000
   C     32.40000000    40.57000000    32.76000000
   H     31.72000000    38.99000000    30.97000000
   H     31.23000000    41.65000000    31.45000000
   H     31.46000000    40.22000000    33.19000000
   H     33.13000000    39.77000000    32.71000000
   H     32.77000000    41.35000000    33.43000000
   N     34.02000000    41.19000000    29.79000000
   C     35.02000000    41.87000000    29.00000000
   C     34.46000000    42.61000000    27.79000000
   O     35.09000000    43.54000000    27.30000000
   C     36.16000000    40.99000000    28.49000000
   C     36.84000000    40.22000000    29.61000000
   C     37.84000000    39.23000000    29.04000000
   O     37.46000000    38.32000000    28.27000000
   O     39.05000000    39.28000000    29.36000000
   H     33.89000000    40.23000000    29.51000000
   H     35.46000000    42.70000000    29.55000000
   H     36.80000000    41.66000000    27.92000000
   H     35.77000000    40.24000000    27.80000000
   H     36.21000000    39.76000000    30.37000000
   H     37.44000000    40.93000000    30.19000000
   N     33.29000000    42.21000000    27.29000000
   C     32.46000000    43.06000000    26.47000000
   H     31.55700000    43.32500000    27.02000000
   H     33.00800000    43.96600000    26.21400000
   H     32.18600000    42.53000000    25.55800000
   H     32.88000000    41.35000000    27.63000000
  Ca     39.77000000    36.73000000    28.65000000
   O     37.85000000    34.91000000    28.99000000
   H     37.02000000    34.62000000    28.61000000
   H     38.25000000    34.11000000    29.33000000

Ca 1.70



