%chk=holoCaM_loop3_44.0.chk
%nprocshared=48
%mem=10GB
%nosave
#b3lyp/svp scf=(tight,noincore) Test 
#IOP(5/87=12) Density=Current Pop=(MK,readradii) iop(6/33=2) iop(6/42=6)

holoCaM_loop3_44.0 

   0   1
   C     86.41000000    32.66000000    25.57000000
   C     87.93000000    32.51000000    25.67000000
   O     88.34000000    31.45000000    26.15000000
   H     85.97200000    32.58800000    26.56600000
   H     86.16800000    33.63000000    25.13600000
   H     86.00700000    31.86800000    24.93800000
   N     88.72000000    33.46000000    25.17000000
   C     90.14000000    33.49000000    25.45000000
   C     90.39000000    34.02000000    26.86000000
   O     90.42000000    35.22000000    27.10000000
   C     90.84000000    34.26000000    24.34000000
   C     92.36000000    34.30000000    24.40000000
   O     92.97000000    35.07000000    23.62000000
   O     92.91000000    33.64000000    25.30000000
   H     88.33000000    34.13000000    24.52000000
   H     90.47000000    32.45000000    25.39000000
   H     90.42000000    35.27000000    24.31000000
   H     90.64000000    33.91000000    23.33000000
   N     90.73000000    33.18000000    27.85000000
   C     90.79000000    33.41000000    29.28000000
   C     92.12000000    34.00000000    29.74000000
   O     92.17000000    34.62000000    30.80000000
   C     90.56000000    32.10000000    30.02000000
   C     89.34000000    31.31000000    29.56000000
   C     87.99000000    32.00000000    29.71000000
   C     86.81000000    31.10000000    29.33000000
   N     85.59000000    31.91000000    29.41000000
   H     90.79000000    32.21000000    27.57000000
   H     89.96000000    34.09000000    29.47000000
   H     90.60000000    32.28000000    31.09000000
   H     91.44000000    31.47000000    29.89000000
   H     89.24000000    30.42000000    30.17000000
   H     89.34000000    30.99000000    28.51000000
   H     87.89000000    32.90000000    29.10000000
   H     87.86000000    32.17000000    30.78000000
   H     86.77000000    30.29000000    30.06000000
   H     86.95000000    30.71000000    28.32000000
   H     85.32000000    31.99000000    30.38000000
   H     85.82000000    32.81000000    29.01000000
   H     84.82000000    31.45000000    28.95000000
   N     93.22000000    33.89000000    29.00000000
   C     94.52000000    34.49000000    29.24000000
   C     94.85000000    35.58000000    28.22000000
   O     95.96000000    36.09000000    28.15000000
   C     95.59000000    33.43000000    29.46000000
   C     95.60000000    32.36000000    28.38000000
   O     95.06000000    32.59000000    27.27000000
   O     96.22000000    31.28000000    28.51000000
   H     93.05000000    33.54000000    28.07000000
   H     94.44000000    34.96000000    30.22000000
   H     95.42000000    32.94000000    30.42000000
   H     96.58000000    33.88000000    29.40000000
   N     93.88000000    35.87000000    27.34000000
   C     93.87000000    36.98000000    26.40000000
   C     94.95000000    36.76000000    25.35000000
   O     95.39000000    37.77000000    24.81000000
   H     93.03000000    35.37000000    27.51000000
   H     94.09000000    37.93000000    26.89000000
   H     92.90000000    37.02000000    25.92000000
   N     95.48000000    35.57000000    25.08000000
   C     96.68000000    35.39000000    24.29000000
   C     96.47000000    35.43000000    22.78000000
   O     97.43000000    35.17000000    22.05000000
   C     97.39000000    34.14000000    24.81000000
   C     96.87000000    32.83000000    24.23000000
   N     97.62000000    31.73000000    24.29000000
   O     95.76000000    32.69000000    23.74000000
   H     94.95000000    34.74000000    25.34000000
   H     97.38000000    36.19000000    24.50000000
   H     97.34000000    33.99000000    25.89000000
   H     98.43000000    34.21000000    24.52000000
   H     98.52000000    31.77000000    24.75000000
   H     97.29000000    30.93000000    23.77000000
   N     95.22000000    35.63000000    22.36000000
   C     94.83000000    35.81000000    20.98000000
   C     94.27000000    34.56000000    20.32000000
   O     93.89000000    34.76000000    19.16000000
   H     94.47000000    35.52000000    23.02000000
   H     95.69000000    36.09000000    20.38000000
   H     94.15000000    36.65000000    20.82000000
   N     94.13000000    33.44000000    21.04000000
   C     93.62000000    32.17000000    20.56000000
   C     92.81000000    31.40000000    21.59000000
   O     92.89000000    31.70000000    22.78000000
   C     94.83000000    31.31000000    20.22000000
   C     95.97000000    31.91000000    19.42000000
   C     97.10000000    32.36000000    20.12000000
   C     95.83000000    32.00000000    18.03000000
   C     98.09000000    33.02000000    19.40000000
   C     96.82000000    32.70000000    17.34000000
   C     97.96000000    33.20000000    18.00000000
   O     98.93000000    33.79000000    17.25000000
   H     94.51000000    33.47000000    21.97000000
   H     93.18000000    32.37000000    19.58000000
   H     94.50000000    30.44000000    19.64000000
   H     95.34000000    31.03000000    21.14000000
   H     97.16000000    32.20000000    21.19000000
   H     95.02000000    31.60000000    17.45000000
   H     98.97000000    33.47000000    19.83000000
   H     96.68000000    32.90000000    16.28000000
   H     98.74000000    33.59000000    16.33000000
   N     92.22000000    30.30000000    21.14000000
   C     91.54000000    29.41000000    22.07000000
   C     92.11000000    28.00000000    22.03000000
   O     92.34000000    27.44000000    20.96000000
   C     90.03000000    29.35000000    21.83000000
   C     89.32000000    30.68000000    22.06000000
   C     89.33000000    28.39000000    22.79000000
   C     87.93000000    30.76000000    21.46000000
   H     92.11000000    30.07000000    20.16000000
   H     91.59000000    29.77000000    23.10000000
   H     89.86000000    29.08000000    20.79000000
   H     89.88000000    31.51000000    21.65000000
   H     89.18000000    31.01000000    23.09000000
   H     89.58000000    27.36000000    22.53000000
   H     89.75000000    28.61000000    23.77000000
   H     88.25000000    28.48000000    22.66000000
   H     87.88000000    30.41000000    20.43000000
   H     87.16000000    30.22000000    22.02000000
   H     87.56000000    31.78000000    21.55000000
   N     92.22000000    27.39000000    23.22000000
   C     92.76000000    26.07000000    23.48000000
   C     91.76000000    24.95000000    23.73000000
   O     90.60000000    25.27000000    24.00000000
   C     93.80000000    26.17000000    24.59000000
   O     93.13000000    26.00000000    25.82000000
   H     91.95000000    27.92000000    24.03000000
   H     93.32000000    25.77000000    22.59000000
   H     94.23000000    27.16000000    24.49000000
   H     94.59000000    25.43000000    24.48000000
   H     93.57000000    26.45000000    26.54000000
   N     92.26000000    23.72000000    23.61000000
   C     91.51000000    22.51000000    23.88000000
   C     91.02000000    22.53000000    25.31000000
   O     89.87000000    22.16000000    25.56000000
   C     92.40000000    21.30000000    23.58000000
   H     93.22000000    23.52000000    23.36000000
   H     90.72000000    22.37000000    23.14000000
   H     91.79000000    20.40000000    23.67000000
   H     92.81000000    21.45000000    22.58000000
   H     93.32000000    21.34000000    24.17000000
   N     91.73000000    23.05000000    26.31000000
   C     91.29000000    23.24000000    27.68000000
   C     90.17000000    24.26000000    27.85000000
   O     89.20000000    23.93000000    28.52000000
   C     92.46000000    23.50000000    28.63000000
   H     92.58000000    23.56000000    26.09000000
   H     90.88000000    22.28000000    27.98000000
   H     92.96000000    24.43000000    28.38000000
   H     92.09000000    23.55000000    29.66000000
   H     93.10000000    22.62000000    28.58000000
   N     90.27000000    25.45000000    27.27000000
   C     89.38000000    26.60000000    27.28000000
   C     88.03000000    26.32000000    26.63000000
   O     87.04000000    26.82000000    27.15000000
   C     90.03000000    27.75000000    26.51000000
   C     91.15000000    28.44000000    27.28000000
   C     91.83000000    29.57000000    26.51000000
   O     92.12000000    30.67000000    27.03000000
   O     92.16000000    29.35000000    25.33000000
   H     91.00000000    25.49000000    26.57000000
   H     89.18000000    26.89000000    28.31000000
   H     89.29000000    28.51000000    26.27000000
   H     90.53000000    27.26000000    25.67000000
   H     91.88000000    27.74000000    27.67000000
   H     90.74000000    28.82000000    28.22000000
   N     87.99000000    25.40000000    25.66000000
   C     86.73000000    25.01000000    25.05000000
   H     85.99700000    25.80400000    25.19100000
   H     86.87900000    24.84000000    23.98400000
   H     86.36700000    24.09500000    25.51700000
   H     88.84000000    24.98000000    25.31000000
  Ca     93.95000000    31.34000000    25.34000000
   O     95.19000000    29.82000000    23.58000000
   H     95.75000000    29.76000000    22.81000000
   H     95.41000000    29.04000000    24.09000000

Ca 1.70



