%chk=holoCaM_loop3_38.0.chk
%nprocshared=48
%mem=10GB
%nosave
#b3lyp/svp scf=(tight,noincore) Test 
#IOP(5/87=12) Density=Current Pop=(MK,readradii) iop(6/33=2) iop(6/42=6)

holoCaM_loop3_38.0 

   0   1
   C     47.12000000    43.91000000    28.41000000
   C     47.44000000    43.24000000    29.74000000
   O     47.37000000    43.84000000    30.81000000
   H     46.30300000    44.61800000    28.54800000
   H     48.00100000    44.43900000    28.04800000
   H     46.82500000    43.15300000    27.68300000
   N     47.87000000    41.98000000    29.73000000
   C     48.11000000    41.23000000    30.95000000
   C     49.32000000    41.76000000    31.69000000
   O     50.37000000    41.97000000    31.09000000
   C     48.37000000    39.76000000    30.59000000
   C     48.48000000    38.86000000    31.81000000
   O     49.00000000    39.23000000    32.88000000
   O     47.94000000    37.73000000    31.76000000
   H     47.97000000    41.57000000    28.82000000
   H     47.27000000    41.22000000    31.64000000
   H     49.29000000    39.63000000    30.02000000
   H     47.51000000    39.34000000    30.08000000
   N     49.17000000    42.20000000    32.94000000
   C     50.09000000    42.78000000    33.90000000
   C     51.28000000    41.90000000    34.26000000
   O     52.45000000    42.26000000    34.19000000
   C     49.40000000    43.26000000    35.18000000
   C     50.34000000    44.14000000    36.00000000
   C     49.68000000    44.55000000    37.31000000
   C     50.50000000    45.54000000    38.14000000
   N     50.24000000    46.96000000    37.86000000
   H     48.25000000    42.01000000    33.33000000
   H     50.44000000    43.66000000    33.36000000
   H     49.15000000    42.41000000    35.81000000
   H     48.48000000    43.77000000    34.91000000
   H     50.50000000    45.08000000    35.47000000
   H     51.32000000    43.71000000    36.20000000
   H     49.48000000    43.68000000    37.93000000
   H     48.71000000    45.00000000    37.12000000
   H     51.57000000    45.34000000    38.15000000
   H     50.22000000    45.35000000    39.18000000
   H     50.20000000    47.13000000    36.86000000
   H     49.33000000    47.22000000    38.21000000
   H     50.88000000    47.63000000    38.26000000
   N     51.06000000    40.63000000    34.58000000
   C     52.04000000    39.64000000    35.00000000
   C     52.40000000    38.61000000    33.94000000
   O     53.38000000    37.90000000    34.15000000
   C     51.46000000    38.89000000    36.20000000
   C     50.03000000    38.41000000    35.98000000
   O     49.06000000    39.19000000    36.07000000
   O     49.79000000    37.28000000    35.50000000
   H     50.06000000    40.48000000    34.56000000
   H     52.92000000    40.16000000    35.37000000
   H     51.39000000    39.61000000    37.01000000
   H     52.08000000    38.03000000    36.46000000
   N     51.67000000    38.54000000    32.83000000
   C     51.92000000    37.60000000    31.76000000
   C     51.67000000    36.12000000    31.99000000
   O     52.45000000    35.31000000    31.50000000
   H     50.87000000    39.15000000    32.81000000
   H     52.95000000    37.72000000    31.44000000
   H     51.38000000    37.88000000    30.85000000
   N     50.67000000    35.73000000    32.79000000
   C     50.11000000    34.39000000    32.86000000
   C     49.06000000    34.06000000    31.81000000
   O     48.72000000    32.88000000    31.68000000
   C     49.57000000    34.04000000    34.24000000
   C     48.15000000    34.52000000    34.50000000
   N     47.39000000    33.78000000    35.31000000
   O     47.69000000    35.60000000    34.12000000
   H     50.13000000    36.40000000    33.31000000
   H     50.95000000    33.76000000    32.57000000
   H     50.14000000    34.41000000    35.09000000
   H     49.53000000    32.95000000    34.29000000
   H     47.78000000    32.90000000    35.63000000
   H     46.50000000    34.04000000    35.70000000
   N     48.48000000    35.00000000    31.07000000
   C     47.54000000    34.70000000    30.01000000
   C     46.09000000    34.69000000    30.48000000
   O     45.31000000    33.89000000    29.98000000
   H     48.65000000    35.98000000    31.25000000
   H     47.76000000    33.71000000    29.61000000
   H     47.65000000    35.40000000    29.19000000
   N     45.81000000    35.59000000    31.42000000
   C     44.50000000    35.68000000    32.05000000
   C     44.29000000    37.07000000    32.61000000
   O     45.14000000    37.56000000    33.36000000
   C     44.37000000    34.68000000    33.20000000
   C     44.20000000    33.26000000    32.73000000
   C     45.27000000    32.35000000    32.77000000
   C     42.89000000    32.77000000    32.59000000
   C     45.08000000    30.98000000    32.59000000
   C     42.65000000    31.40000000    32.45000000
   C     43.75000000    30.52000000    32.43000000
   O     43.55000000    29.21000000    32.11000000
   H     46.46000000    36.26000000    31.81000000
   H     43.70000000    35.49000000    31.33000000
   H     43.44000000    34.90000000    33.72000000
   H     45.21000000    34.80000000    33.88000000
   H     46.27000000    32.74000000    32.92000000
   H     42.09000000    33.47000000    32.73000000
   H     45.88000000    30.26000000    32.52000000
   H     41.62000000    31.14000000    32.30000000
   H     42.69000000    28.78000000    32.06000000
   N     43.14000000    37.71000000    32.39000000
   C     42.88000000    39.09000000    32.74000000
   C     41.81000000    39.07000000    33.82000000
   O     40.68000000    38.64000000    33.58000000
   C     42.40000000    39.80000000    31.47000000
   C     43.61000000    40.27000000    30.67000000
   C     41.42000000    40.94000000    31.74000000
   C     43.32000000    41.13000000    29.45000000
   H     42.44000000    37.19000000    31.88000000
   H     43.77000000    39.55000000    33.15000000
   H     41.98000000    39.04000000    30.81000000
   H     44.16000000    39.37000000    30.38000000
   H     44.25000000    40.80000000    31.38000000
   H     40.50000000    40.59000000    32.19000000
   H     41.87000000    41.78000000    32.27000000
   H     41.09000000    41.32000000    30.77000000
   H     44.27000000    41.23000000    28.93000000
   H     42.56000000    40.63000000    28.84000000
   H     42.88000000    42.09000000    29.72000000
   N     42.22000000    39.39000000    35.05000000
   C     41.35000000    39.63000000    36.19000000
   C     40.52000000    40.90000000    36.08000000
   O     40.84000000    41.72000000    35.22000000
   C     42.20000000    39.66000000    37.46000000
   O     43.05000000    40.78000000    37.41000000
   H     43.19000000    39.66000000    35.17000000
   H     40.63000000    38.82000000    36.15000000
   H     42.77000000    38.73000000    37.54000000
   H     41.43000000    39.78000000    38.22000000
   H     43.25000000    40.84000000    38.34000000
   N     39.61000000    41.14000000    37.03000000
   C     38.98000000    42.44000000    37.16000000
   C     39.87000000    43.65000000    37.41000000
   O     39.56000000    44.81000000    37.14000000
   C     37.89000000    42.40000000    38.23000000
   H     39.61000000    40.62000000    37.89000000
   H     38.39000000    42.63000000    36.27000000
   H     37.17000000    43.15000000    37.91000000
   H     37.52000000    41.38000000    38.30000000
   H     38.37000000    42.61000000    39.18000000
   N     41.06000000    43.39000000    37.97000000
   C     42.09000000    44.40000000    38.11000000
   C     42.90000000    44.71000000    36.86000000
   O     43.42000000    45.82000000    36.77000000
   C     42.99000000    43.99000000    39.27000000
   H     41.26000000    42.42000000    38.17000000
   H     41.52000000    45.29000000    38.38000000
   H     42.26000000    43.69000000    40.03000000
   H     43.61000000    43.12000000    39.07000000
   H     43.65000000    44.82000000    39.51000000
   N     42.92000000    43.78000000    35.91000000
   C     43.67000000    43.99000000    34.69000000
   C     42.69000000    44.51000000    33.65000000
   O     43.12000000    45.08000000    32.65000000
   C     44.46000000    42.76000000    34.26000000
   C     45.47000000    42.27000000    35.29000000
   C     46.05000000    40.90000000    34.96000000
   O     46.85000000    40.70000000    34.03000000
   O     45.72000000    39.86000000    35.57000000
   H     42.60000000    42.85000000    36.13000000
   H     44.45000000    44.74000000    34.88000000
   H     44.95000000    42.98000000    33.31000000
   H     43.84000000    41.88000000    34.10000000
   H     45.07000000    42.26000000    36.31000000
   H     46.23000000    43.06000000    35.35000000
   N     41.38000000    44.37000000    33.84000000
   C     40.35000000    44.91000000    32.98000000
   H     39.50000000    45.22600000    33.58600000
   H     40.74400000    45.76700000    32.43400000
   H     40.02800000    44.14500000    32.27400000
   H     41.09000000    43.79000000    34.62000000
  Ca     47.35000000    38.17000000    34.49000000
   O     45.80000000    36.66000000    36.30000000
   H     45.88000000    37.01000000    37.19000000
   H     45.54000000    35.74000000    36.43000000

Ca 1.70



