%chk=loop3.cluster108.chk
%nprocshared=48
%mem=10GB
%nosave
#b3lyp/svp scf=(tight,noincore) Test 
#IOP(5/87=12) Density=Current Pop=(MK,readradii) iop(6/33=2) iop(6/42=6)

loop3.cluster108 

   0  1 
   C     84.29000000    64.39000000    33.65000000
   C     84.40000000    63.33000000    32.56000000
   O     83.78000000    62.28000000    32.69000000
   H     83.24000000    64.55600000    33.89000000
   H     84.81600000    64.05100000    34.54200000
   H     84.73400000    65.32100000    33.29800000
   N     85.34000000    63.58000000    31.65000000
   C     85.93000000    62.49000000    30.91000000
   C     86.87000000    61.55000000    31.65000000
   O     87.49000000    61.87000000    32.66000000
   C     86.74000000    62.92000000    29.69000000
   C     87.91000000    63.82000000    30.05000000
   O     89.05000000    63.31000000    30.10000000
   O     87.70000000    65.01000000    30.37000000
   H     85.85000000    64.45000000    31.73000000
   H     85.10000000    61.91000000    30.49000000
   H     86.09000000    63.53000000    29.06000000
   H     87.06000000    62.13000000    29.01000000
   N     87.01000000    60.32000000    31.15000000
   C     87.91000000    59.33000000    31.69000000
   C     87.51000000    58.55000000    32.94000000
   O     88.37000000    58.31000000    33.78000000
   C     88.45000000    58.50000000    30.53000000
   C     89.78000000    57.80000000    30.80000000
   C     90.26000000    57.06000000    29.56000000
   C     89.58000000    55.69000000    29.48000000
   N     89.89000000    55.02000000    28.21000000
   H     86.48000000    60.09000000    30.32000000
   H     88.74000000    59.93000000    32.06000000
   H     88.62000000    59.20000000    29.71000000
   H     87.71000000    57.76000000    30.21000000
   H     89.59000000    57.07000000    31.58000000
   H     90.49000000    58.55000000    31.15000000
   H     91.33000000    56.91000000    29.69000000
   H     90.12000000    57.66000000    28.66000000
   H     88.50000000    55.85000000    29.51000000
   H     89.84000000    55.10000000    30.35000000
   H     89.47000000    54.10000000    28.17000000
   H     89.57000000    55.50000000    27.37000000
   H     90.87000000    54.88000000    28.04000000
   N     86.22000000    58.22000000    33.09000000
   C     85.70000000    57.48000000    34.22000000
   C     85.79000000    55.98000000    33.97000000
   O     84.82000000    55.29000000    33.67000000
   C     84.27000000    57.87000000    34.59000000
   C     83.28000000    57.71000000    33.45000000
   O     82.11000000    57.37000000    33.73000000
   O     83.56000000    58.20000000    32.33000000
   H     85.58000000    58.46000000    32.35000000
   H     86.31000000    57.74000000    35.08000000
   H     84.18000000    58.95000000    34.71000000
   H     83.91000000    57.38000000    35.49000000
   N     87.05000000    55.55000000    34.11000000
   C     87.46000000    54.19000000    33.82000000
   C     87.57000000    53.92000000    32.33000000
   O     86.94000000    54.64000000    31.57000000
   H     87.75000000    56.16000000    34.51000000
   H     86.91000000    53.39000000    34.33000000
   H     88.48000000    54.07000000    34.20000000
   N     88.26000000    52.89000000    31.82000000
   C     88.69000000    51.74000000    32.60000000
   C     87.53000000    50.96000000    33.19000000
   O     86.38000000    51.05000000    32.76000000
   C     89.61000000    50.93000000    31.69000000
   C     90.86000000    51.70000000    31.31000000
   N     91.03000000    51.89000000    30.00000000
   O     91.67000000    52.15000000    32.12000000
   H     88.45000000    52.81000000    30.84000000
   H     89.34000000    52.12000000    33.39000000
   H     89.11000000    50.54000000    30.80000000
   H     89.88000000    49.93000000    32.04000000
   H     90.34000000    51.44000000    29.41000000
   H     91.75000000    52.50000000    29.65000000
   N     87.74000000    50.06000000    34.15000000
   C     88.88000000    49.99000000    35.04000000
   C     88.88000000    51.12000000    36.06000000
   O     88.73000000    52.31000000    35.80000000
   H     86.96000000    49.47000000    34.40000000
   H     89.82000000    49.96000000    34.49000000
   H     88.78000000    49.06000000    35.60000000
   N     89.03000000    50.76000000    37.34000000
   C     88.68000000    51.55000000    38.49000000
   C     89.50000000    51.19000000    39.72000000
   O     89.49000000    50.02000000    40.12000000
   C     87.18000000    51.52000000    38.76000000
   C     86.22000000    51.12000000    37.66000000
   C     85.52000000    52.10000000    36.94000000
   C     85.98000000    49.77000000    37.38000000
   C     84.85000000    51.75000000    35.77000000
   C     85.17000000    49.37000000    36.31000000
   C     84.69000000    50.38000000    35.46000000
   O     83.90000000    50.10000000    34.38000000
   H     89.43000000    49.85000000    37.55000000
   H     88.97000000    52.54000000    38.13000000
   H     86.86000000    52.50000000    39.13000000
   H     87.01000000    50.75000000    39.51000000
   H     85.44000000    53.13000000    37.25000000
   H     86.45000000    49.01000000    37.99000000
   H     84.45000000    52.50000000    35.10000000
   H     84.99000000    48.34000000    36.05000000
   H     83.95000000    49.18000000    34.12000000
   N     90.18000000    52.12000000    40.39000000
   C     91.17000000    51.85000000    41.42000000
   C     91.34000000    53.06000000    42.32000000
   O     92.10000000    52.89000000    43.27000000
   C     92.51000000    51.66000000    40.71000000
   C     92.73000000    50.28000000    40.12000000
   C     92.81000000    52.73000000    39.66000000
   C     94.14000000    49.91000000    39.68000000
   H     90.13000000    53.02000000    39.94000000
   H     90.90000000    50.96000000    41.98000000
   H     93.29000000    51.79000000    41.47000000
   H     91.98000000    50.17000000    39.33000000
   H     92.40000000    49.51000000    40.82000000
   H     92.41000000    52.52000000    38.67000000
   H     92.34000000    53.68000000    39.92000000
   H     93.87000000    52.99000000    39.62000000
   H     94.38000000    50.40000000    38.73000000
   H     94.81000000    50.14000000    40.51000000
   H     94.18000000    48.84000000    39.50000000
   N     90.72000000    54.23000000    42.13000000
   C     91.04000000    55.44000000    42.84000000
   C     91.47000000    56.67000000    42.05000000
   O     92.13000000    57.53000000    42.63000000
   C     90.00000000    55.75000000    43.92000000
   O     88.82000000    56.08000000    43.21000000
   H     89.94000000    54.26000000    41.48000000
   H     92.01000000    55.38000000    43.33000000
   H     90.30000000    56.62000000    44.51000000
   H     89.92000000    54.85000000    44.52000000
   H     88.69000000    55.73000000    42.33000000
   N     91.13000000    56.66000000    40.76000000
   C     91.66000000    57.58000000    39.77000000
   C     90.61000000    58.61000000    39.41000000
   O     90.26000000    58.73000000    38.24000000
   C     92.18000000    56.77000000    38.59000000
   H     90.63000000    55.85000000    40.42000000
   H     92.46000000    58.18000000    40.20000000
   H     91.37000000    56.35000000    37.99000000
   H     92.73000000    57.33000000    37.82000000
   H     92.82000000    55.99000000    38.99000000
   N     90.08000000    59.30000000    40.43000000
   C     88.90000000    60.13000000    40.42000000
   C     87.69000000    59.55000000    39.69000000
   O     86.86000000    60.21000000    39.06000000
   C     89.20000000    61.55000000    39.92000000
   H     90.50000000    59.12000000    41.33000000
   H     88.58000000    60.19000000    41.46000000
   H     89.80000000    62.08000000    40.66000000
   H     89.76000000    61.47000000    38.99000000
   H     88.34000000    62.19000000    39.73000000
   N     87.59000000    58.23000000    39.61000000
   C     86.48000000    57.59000000    38.92000000
   C     85.34000000    57.19000000    39.84000000
   O     84.16000000    57.35000000    39.52000000
   C     86.98000000    56.48000000    38.00000000
   C     87.30000000    55.13000000    38.63000000
   C     88.48000000    55.18000000    39.60000000
   O     88.29000000    55.60000000    40.76000000
   O     89.57000000    54.67000000    39.26000000
   H     88.20000000    57.65000000    40.17000000
   H     86.11000000    58.25000000    38.14000000
   H     87.81000000    56.92000000    37.43000000
   H     86.20000000    56.38000000    37.24000000
   H     87.56000000    54.50000000    37.78000000
   H     86.38000000    54.78000000    39.10000000
   N     85.62000000    56.62000000    41.02000000
   C     84.64000000    56.43000000    42.06000000
   H     83.70700000    56.07900000    41.61900000
   H     85.00500000    55.69100000    42.77300000
   H     84.46600000    57.37600000    42.57300000
   H     86.57000000    56.37000000    41.27000000
  Ca     80.27000000    56.76000000    31.75000000
   O     79.06000000    56.14000000    34.11000000
   H     78.48000000    55.63000000    34.67000000
   H     79.35000000    56.88000000    34.65000000
   O     81.61000000    56.55000000    29.51000000
   H     82.20000000    57.07000000    28.96000000
   H     80.99000000    56.16000000    28.90000000
   O     78.67000000    54.75000000    31.33000000
   H     78.05000000    54.60000000    32.05000000
   H     78.20000000    54.48000000    30.54000000
   O     81.01000000    59.29000000    31.61000000
   H     81.39000000    59.68000000    32.39000000
   H     81.64000000    59.49000000    30.91000000
   O     81.97000000    54.91000000    32.11000000
   H     82.38000000    55.10000000    32.95000000
   H     82.62000000    54.39000000    31.64000000

Ca 1.70



