%chk=loop1.cluster32.chk
%nprocshared=48
%mem=10GB
%nosave
#b3lyp/svp scf=(tight,noincore) Test 
#IOP(5/87=12) Density=Current Pop=(MK,readradii) iop(6/33=2) iop(6/42=6)

loop1.cluster32 

   0  1 
   C     91.98000000   110.41000000    63.79000000
   C     91.10000000   110.70000000    62.58000000
   O     89.95000000   110.27000000    62.63000000
   H     92.87000000   111.03700000    63.75000000
   H     91.42500000   110.62500000    64.70300000
   H     92.27500000   109.36100000    63.78200000
   N     91.60000000   111.51000000    61.65000000
   C     90.95000000   111.71000000    60.37000000
   C     91.00000000   110.50000000    59.45000000
   O     91.59000000   109.50000000    59.87000000
   C     91.64000000   112.91000000    59.74000000
   C     91.83000000   114.08000000    60.70000000
   O     92.88000000   114.10000000    61.39000000
   O     91.05000000   115.04000000    60.58000000
   H     92.42000000   112.06000000    61.85000000
   H     89.94000000   112.03000000    60.61000000
   H     90.99000000   113.27000000    58.95000000
   H     92.55000000   112.55000000    59.26000000
   N     90.48000000   110.52000000    58.22000000
   C     90.45000000   109.43000000    57.27000000
   C     91.56000000   109.62000000    56.24000000
   O     91.97000000   108.70000000    55.54000000
   C     89.07000000   109.36000000    56.63000000
   C     88.03000000   108.52000000    57.38000000
   C     87.41000000   109.04000000    58.68000000
   C     86.46000000   110.20000000    58.40000000
   N     85.56000000   110.46000000    59.53000000
   H     90.12000000   111.37000000    57.80000000
   H     90.62000000   108.48000000    57.77000000
   H     89.17000000   108.83000000    55.68000000
   H     88.73000000   110.38000000    56.50000000
   H     88.51000000   107.57000000    57.63000000
   H     87.25000000   108.33000000    56.65000000
   H     88.22000000   109.41000000    59.31000000
   H     86.95000000   108.16000000    59.13000000
   H     85.89000000   110.09000000    57.47000000
   H     87.15000000   111.04000000    58.25000000
   H     85.36000000   111.45000000    59.62000000
   H     84.66000000   110.01000000    59.42000000
   H     85.96000000   110.16000000    60.41000000
   N     92.25000000   110.76000000    56.17000000
   C     93.22000000   111.08000000    55.14000000
   C     94.19000000   112.12000000    55.66000000
   O     93.88000000   112.83000000    56.62000000
   C     92.51000000   111.62000000    53.90000000
   C     93.40000000   111.71000000    52.66000000
   O     94.41000000   110.99000000    52.56000000
   O     93.01000000   112.43000000    51.72000000
   H     91.96000000   111.57000000    56.70000000
   H     93.80000000   110.19000000    54.89000000
   H     92.11000000   112.59000000    54.22000000
   H     91.72000000   110.93000000    53.64000000
   N     95.40000000   112.20000000    55.08000000
   C     96.52000000   113.04000000    55.45000000
   C     97.91000000   112.53000000    55.09000000
   O     98.11000000   111.42000000    54.60000000
   H     95.61000000   111.64000000    54.27000000
   H     96.55000000   113.10000000    56.53000000
   H     96.49000000   114.07000000    55.08000000
   N     98.90000000   113.42000000    55.08000000
   C    100.31000000   113.14000000    54.91000000
   C    101.09000000   114.11000000    55.79000000
   O    100.60000000   115.19000000    56.12000000
   C    100.75000000   113.27000000    53.46000000
   C     99.98000000   112.34000000    52.53000000
   O     99.15000000   112.79000000    51.71000000
   O    100.32000000   111.14000000    52.68000000
   H     98.68000000   114.36000000    55.39000000
   H    100.42000000   112.14000000    55.34000000
   H    101.82000000   113.06000000    53.40000000
   H    100.74000000   114.28000000    53.05000000
   N    102.34000000   113.77000000    56.13000000
   C    103.12000000   114.34000000    57.21000000
   C    102.60000000   113.89000000    58.57000000
   O    103.30000000   113.23000000    59.33000000
   H    102.78000000   113.08000000    55.54000000
   H    102.94000000   115.40000000    57.04000000
   H    104.19000000   114.13000000    57.24000000
   N    101.41000000   114.38000000    58.92000000
   C    100.75000000   113.92000000    60.12000000
   C    100.46000000   115.12000000    61.01000000
   O    100.33000000   116.25000000    60.55000000
   C     99.44000000   113.21000000    59.80000000
   C     98.55000000   113.93000000    58.79000000
   O     99.70000000   111.92000000    59.28000000
   H    100.96000000   115.07000000    58.33000000
   H    101.39000000   113.20000000    60.64000000
   H     98.85000000   113.00000000    60.69000000
   H     98.89000000   111.62000000    58.85000000
   H     98.89000000   113.88000000    57.76000000
   H     97.57000000   113.47000000    58.74000000
   H     98.33000000   114.97000000    59.06000000
   N    100.17000000   114.90000000    62.29000000
   C     99.67000000   115.84000000    63.28000000
   C    100.76000000   116.52000000    64.10000000
   O    100.52000000   117.34000000    64.98000000
   C     98.77000000   115.03000000    64.21000000
   C     99.36000000   113.72000000    64.74000000
   C     97.43000000   114.68000000    63.56000000
   C     98.85000000   113.10000000    66.03000000
   H    100.33000000   113.99000000    62.70000000
   H     99.08000000   116.63000000    62.82000000
   H     98.49000000   115.67000000    65.05000000
   H    100.40000000   113.93000000    64.98000000
   H     99.33000000   112.95000000    63.97000000
   H     96.67000000   114.29000000    64.23000000
   H     96.96000000   115.59000000    63.20000000
   H     97.52000000   114.05000000    62.68000000
   H     98.61000000   113.90000000    66.73000000
   H     98.04000000   112.40000000    65.82000000
   H     99.72000000   112.51000000    66.34000000
   N    102.04000000   116.21000000    63.90000000
   C    103.21000000   116.71000000    64.60000000
   C    104.26000000   115.61000000    64.68000000
   O    104.61000000   115.03000000    63.65000000
   C    103.85000000   117.92000000    63.93000000
   C    103.15000000   119.28000000    63.94000000
   O    105.06000000   118.35000000    64.51000000
   H    102.27000000   115.69000000    63.07000000
   H    103.00000000   116.91000000    65.65000000
   H    104.03000000   117.73000000    62.87000000
   H    105.79000000   118.36000000    63.89000000
   H    103.71000000   119.86000000    63.21000000
   H    102.13000000   119.13000000    63.60000000
   H    103.21000000   119.68000000    64.95000000
   N    104.83000000   115.29000000    65.84000000
   C    106.06000000   114.52000000    65.88000000
   C    106.26000000   113.76000000    67.19000000
   O    107.29000000   113.09000000    67.28000000
   C    107.26000000   115.42000000    65.62000000
   C    107.41000000   116.64000000    66.53000000
   O    107.26000000   115.92000000    64.30000000
   H    104.60000000   115.77000000    66.70000000
   H    106.02000000   113.89000000    64.99000000
   H    108.15000000   114.83000000    65.80000000
   H    108.18000000   116.05000000    64.04000000
   H    107.62000000   116.35000000    67.57000000
   H    108.23000000   117.18000000    66.08000000
   H    106.50000000   117.24000000    66.56000000
   N    105.40000000   113.96000000    68.19000000
   C    105.24000000   113.10000000    69.35000000
   C    104.62000000   111.80000000    68.87000000
   O    103.67000000   111.79000000    68.10000000
   C    104.31000000   113.83000000    70.31000000
   C    104.09000000   113.11000000    71.63000000
   C    103.11000000   113.87000000    72.52000000
   C    103.70000000   115.15000000    73.10000000
   N    104.78000000   114.76000000    74.02000000
   H    104.67000000   114.63000000    68.01000000
   H    106.19000000   112.85000000    69.82000000
   H    103.39000000   114.16000000    69.83000000
   H    104.85000000   114.75000000    70.53000000
   H    105.01000000   112.86000000    72.16000000
   H    103.53000000   112.20000000    71.40000000
   H    102.89000000   113.19000000    73.34000000
   H    102.13000000   114.06000000    72.07000000
   H    103.04000000   115.81000000    73.65000000
   H    104.14000000   115.78000000    72.33000000
   H    104.37000000   114.28000000    74.80000000
   H    105.41000000   114.11000000    73.56000000
   H    105.29000000   115.56000000    74.35000000
   N    105.01000000   110.72000000    69.57000000
   C    104.46000000   109.40000000    69.35000000
   C    104.93000000   108.86000000    68.00000000
   O    105.94000000   109.27000000    67.43000000
   C    105.05000000   108.51000000    70.44000000
   C    104.28000000   108.59000000    71.76000000
   C    102.95000000   107.86000000    71.73000000
   O    102.83000000   106.62000000    71.70000000
   O    101.92000000   108.57000000    71.78000000
   H    105.82000000   110.87000000    70.15000000
   H    103.38000000   109.33000000    69.36000000
   H    106.12000000   108.71000000    70.59000000
   H    104.88000000   107.48000000    70.15000000
   H    104.19000000   109.57000000    72.22000000
   H    104.88000000   107.98000000    72.44000000
   N    104.26000000   107.89000000    67.38000000
   C    102.97000000   107.34000000    67.72000000
   H    102.23400000   107.66000000    66.98300000
   H    103.02900000   106.25200000    67.72600000
   H    102.67200000   107.69400000    68.70700000
   H    104.72000000   107.65000000    66.51000000
  Ca     95.17000000   108.55300000    52.08000000
   O     96.71000000   108.98300000    49.75000000
   H     96.75000000   108.54300000    48.90000000
   H     97.62000000   109.15300000    49.98000000
   O     92.93000000   108.12300000    53.12000000
   H     92.57000000   108.39300000    53.96000000
   H     92.17000000   107.94300000    52.57000000
   O     93.34000000   109.18300000    50.39000000
   H     92.47000000   108.77300000    50.37000000
   H     93.44000000   109.56300000    49.51000000
   O     97.45000000   110.50300000    52.06000000
   H     98.08000000   110.87300000    51.44000000
   H     97.02000000   111.27300000    52.45000000
   O     94.83000000   106.46300000    50.37000000
   H     95.33000000   105.78300000    49.90000000
   H     94.01000000   106.54300000    49.87000000

Ca 1.70



