%chk=loop2.cluster237.chk
%nprocshared=48
%mem=10GB
%nosave
#b3lyp/svp scf=(tight,noincore) Test 
#IOP(5/87=12) Density=Current Pop=(MK,readradii) iop(6/33=2) iop(6/42=6)

loop2.cluster237 

   -2  1 
   C     51.52000000    44.44000000    16.47000000
   C     52.08000000    44.74000000    15.08000000
   O     51.52000000    44.17000000    14.15000000
   H     50.50000000    44.06800000    16.37700000
   H     52.13800000    43.68600000    16.95700000
   H     51.52100000    45.35200000    17.06700000
   N     53.19000000    45.48000000    14.99000000
   C     53.89000000    45.70000000    13.74000000
   C     53.10000000    46.70000000    12.90000000
   O     52.52000000    47.68000000    13.38000000
   C     55.23000000    46.27000000    14.18000000
   C     56.08000000    46.67000000    12.98000000
   O     56.41000000    45.80000000    12.14000000
   O     56.38000000    47.87000000    12.81000000
   H     53.66000000    45.75000000    15.84000000
   H     53.91000000    44.77000000    13.18000000
   H     55.75000000    45.49000000    14.73000000
   H     54.99000000    47.17000000    14.75000000
   N     52.82000000    46.33000000    11.65000000
   C     51.78000000    46.99000000    10.90000000
   C     50.45000000    46.26000000    11.01000000
   O     50.44000000    45.03000000    11.06000000
   C     52.23000000    47.37000000     9.49000000
   H     53.24000000    45.45000000    11.38000000
   H     51.55000000    47.94000000    11.37000000
   H     51.34000000    47.75000000     8.99000000
   H     53.06000000    48.07000000     9.54000000
   H     52.56000000    46.46000000     8.99000000
   N     49.28000000    46.91000000    10.99000000
   C     49.20000000    48.35000000    10.89000000
   C     49.38000000    49.01000000    12.26000000
   O     49.07000000    48.42000000    13.29000000
   C     47.85000000    48.71000000    10.29000000
   C     46.69000000    47.93000000    10.91000000
   O     46.35000000    46.84000000    10.41000000
   O     46.17000000    48.27000000    11.99000000
   H     48.38000000    46.47000000    11.12000000
   H     50.00000000    48.74000000    10.26000000
   H     47.94000000    48.45000000     9.24000000
   H     47.57000000    49.75000000    10.48000000
   N     49.79000000    50.28000000    12.25000000
   C     50.12000000    51.14000000    13.36000000
   C     49.66000000    52.58000000    13.14000000
   O     50.40000000    53.29000000    12.46000000
   H     49.84000000    50.67000000    11.32000000
   H     51.21000000    51.15000000    13.31000000
   H     49.80000000    50.66000000    14.29000000
   N     48.51000000    53.08000000    13.59000000
   C     47.50000000    52.30000000    14.29000000
   C     47.78000000    52.00000000    15.76000000
   O     48.61000000    52.67000000    16.38000000
   C     46.14000000    52.97000000    14.17000000
   C     45.80000000    53.13000000    12.69000000
   N     45.54000000    54.36000000    12.25000000
   O     45.91000000    52.20000000    11.90000000
   H     48.35000000    54.04000000    13.32000000
   H     47.50000000    51.38000000    13.72000000
   H     46.09000000    53.95000000    14.63000000
   H     45.37000000    52.35000000    14.63000000
   H     45.37000000    55.08000000    12.93000000
   H     45.31000000    54.50000000    11.27000000
   N     47.17000000    50.96000000    16.34000000
   C     47.52000000    50.53000000    17.68000000
   C     46.75000000    49.31000000    18.15000000
   O     46.74000000    48.99000000    19.34000000
   H     46.62000000    50.40000000    15.71000000
   H     47.56000000    51.28000000    18.47000000
   H     48.56000000    50.20000000    17.59000000
   N     45.88000000    48.82000000    17.27000000
   C     44.76000000    47.98000000    17.64000000
   C     44.65000000    46.66000000    16.88000000
   O     44.75000000    46.55000000    15.66000000
   C     43.46000000    48.78000000    17.49000000
   C     43.16000000    49.86000000    18.53000000
   O     43.44000000    49.42000000    16.24000000
   H     45.94000000    49.12000000    16.31000000
   H     44.76000000    47.70000000    18.69000000
   H     42.66000000    48.05000000    17.54000000
   H     43.61000000    50.35000000    16.42000000
   H     42.11000000    50.13000000    18.54000000
   H     43.42000000    49.44000000    19.50000000
   H     43.77000000    50.74000000    18.32000000
   N     44.21000000    45.66000000    17.64000000
   C     43.94000000    44.38000000    17.02000000
   C     42.67000000    44.36000000    16.19000000
   O     41.68000000    44.96000000    16.62000000
   C     43.96000000    43.17000000    17.95000000
   C     45.33000000    42.78000000    18.51000000
   C     42.95000000    43.20000000    19.09000000
   C     45.42000000    41.29000000    18.84000000
   H     44.00000000    45.80000000    18.62000000
   H     44.75000000    44.14000000    16.33000000
   H     43.68000000    42.38000000    17.26000000
   H     45.45000000    43.34000000    19.44000000
   H     46.10000000    43.12000000    17.82000000
   H     42.52000000    42.21000000    19.24000000
   H     43.35000000    43.52000000    20.05000000
   H     42.14000000    43.88000000    18.82000000
   H     45.16000000    41.08000000    19.88000000
   H     44.70000000    40.67000000    18.31000000
   H     46.42000000    40.89000000    18.68000000
   N     42.60000000    43.62000000    15.09000000
   C     41.43000000    43.15000000    14.36000000
   C     41.65000000    41.70000000    13.96000000
   O     42.52000000    41.34000000    13.18000000
   C     41.04000000    44.04000000    13.19000000
   C     42.11000000    44.21000000    12.12000000
   O     42.95000000    45.12000000    12.27000000
   O     42.13000000    43.63000000    11.01000000
   H     43.45000000    43.17000000    14.79000000
   H     40.54000000    43.17000000    14.99000000
   H     40.76000000    45.03000000    13.55000000
   H     40.12000000    43.72000000    12.68000000
   N     40.74000000    40.80000000    14.35000000
   C     40.80000000    39.40000000    13.99000000
   C     42.17000000    38.79000000    14.27000000
   O     42.70000000    38.91000000    15.38000000
   C     39.75000000    38.54000000    14.70000000
   C     39.70000000    37.07000000    14.36000000
   C     40.52000000    36.13000000    15.01000000
   C     38.96000000    36.58000000    13.28000000
   C     40.53000000    34.77000000    14.71000000
   C     39.04000000    35.23000000    12.90000000
   C     39.85000000    34.31000000    13.58000000
   H     40.04000000    41.14000000    14.98000000
   H     40.65000000    39.28000000    12.92000000
   H     38.75000000    38.95000000    14.57000000
   H     39.89000000    38.73000000    15.76000000
   H     41.08000000    36.47000000    15.87000000
   H     38.26000000    37.22000000    12.76000000
   H     41.04000000    34.07000000    15.36000000
   H     38.48000000    34.95000000    12.02000000
   H     39.94000000    33.27000000    13.30000000
   N     42.79000000    38.04000000    13.36000000
   C     43.85000000    37.09000000    13.65000000
   C     45.17000000    37.65000000    14.17000000
   O     46.04000000    36.87000000    14.55000000
   C     44.09000000    36.26000000    12.39000000
   C     43.66000000    37.24000000    11.30000000
   C     42.45000000    37.91000000    11.95000000
   H     43.40000000    36.42000000    14.38000000
   H     45.16000000    36.13000000    12.21000000
   H     43.40000000    35.43000000    12.32000000
   H     44.48000000    37.86000000    10.94000000
   H     43.29000000    36.65000000    10.46000000
   H     42.28000000    38.92000000    11.57000000
   H     41.60000000    37.25000000    11.78000000
   N     45.31000000    38.97000000    14.30000000
   C     46.54000000    39.63000000    14.68000000
   C     47.07000000    39.31000000    16.07000000
   O     48.29000000    39.28000000    16.26000000
   C     46.36000000    41.15000000    14.62000000
   C     46.16000000    41.67000000    13.20000000
   C     46.01000000    43.19000000    13.21000000
   O     45.37000000    43.84000000    14.07000000
   O     46.45000000    43.82000000    12.22000000
   H     44.56000000    39.50000000    13.89000000
   H     47.31000000    39.34000000    13.96000000
   H     47.31000000    41.54000000    14.97000000
   H     45.51000000    41.46000000    15.22000000
   H     45.26000000    41.17000000    12.84000000
   H     47.02000000    41.42000000    12.59000000
   N     46.24000000    38.82000000    16.99000000
   C     46.67000000    38.27000000    18.25000000
   H     47.54200000    38.81900000    18.60700000
   H     45.86400000    38.35600000    18.97900000
   H     46.93100000    37.22000000    18.11900000
   H     45.30000000    38.60000000    16.70000000
  Ca     45.10000000    46.20000000    13.04000000
   O     47.42000000    46.60000000    14.36000000
   H     47.98000000    47.19000000    13.86000000
   H     47.92000000    46.42000000    15.16000000
   O     43.28000000    48.00000000    13.09000000
   H     43.53000000    48.91000000    12.92000000
   H     42.49000000    47.86000000    12.57000000

Ca 1.70



