%chk=loop3.cluster190.chk
%nprocshared=48
%mem=10GB
%nosave
#b3lyp/svp scf=(tight,noincore) Test 
#IOP(5/87=12) Density=Current Pop=(MK,readradii) iop(6/33=2) iop(6/42=6)

loop3.cluster190 

   0  1 
   C    109.92000000    71.92000000    37.78000000
   C    110.62000000    70.58000000    37.95000000
   O    110.66000000    70.04000000    39.06000000
   H    108.97000000    71.90300000    38.31400000
   H    110.54900000    72.71300000    38.18400000
   H    109.73800000    72.10400000    36.72100000
   N    111.14000000    70.03000000    36.85000000
   C    111.73000000    68.71000000    36.76000000
   C    113.11000000    68.67000000    37.39000000
   O    113.97000000    69.54000000    37.27000000
   C    111.82000000    68.20000000    35.32000000
   C    112.15000000    66.72000000    35.15000000
   O    111.28000000    65.84000000    34.97000000
   O    113.35000000    66.37000000    35.19000000
   H    111.13000000    70.62000000    36.03000000
   H    111.08000000    68.02000000    37.30000000
   H    112.55000000    68.73000000    34.71000000
   H    110.83000000    68.25000000    34.86000000
   N    113.42000000    67.51000000    37.97000000
   C    114.66000000    67.27000000    38.67000000
   C    115.86000000    67.00000000    37.77000000
   O    116.99000000    67.06000000    38.25000000
   C    114.50000000    66.28000000    39.83000000
   C    113.86000000    64.92000000    39.54000000
   C    113.82000000    64.20000000    40.88000000
   C    113.03000000    62.91000000    40.73000000
   N    113.35000000    62.03000000    41.87000000
   H    112.76000000    66.75000000    38.10000000
   H    114.96000000    68.23000000    39.09000000
   H    113.84000000    66.77000000    40.55000000
   H    115.46000000    66.07000000    40.30000000
   H    114.30000000    64.32000000    38.74000000
   H    112.82000000    65.19000000    39.35000000
   H    113.31000000    64.81000000    41.64000000
   H    114.83000000    64.04000000    41.24000000
   H    113.27000000    62.38000000    39.81000000
   H    111.96000000    63.06000000    40.60000000
   H    114.26000000    61.60000000    41.91000000
   H    113.04000000    62.56000000    42.68000000
   H    112.73000000    61.23000000    41.95000000
   N    115.61000000    66.87000000    36.47000000
   C    116.68000000    67.00000000    35.50000000
   C    116.32000000    67.95000000    34.36000000
   O    116.77000000    67.81000000    33.23000000
   C    117.08000000    65.64000000    34.93000000
   C    115.90000000    64.81000000    34.45000000
   O    115.32000000    65.15000000    33.40000000
   O    115.50000000    63.80000000    35.06000000
   H    114.68000000    66.76000000    36.10000000
   H    117.51000000    67.46000000    36.02000000
   H    117.63000000    65.16000000    35.74000000
   H    117.86000000    65.76000000    34.18000000
   N    115.46000000    68.95000000    34.62000000
   C    115.29000000    70.08000000    33.73000000
   C    114.50000000    69.68000000    32.49000000
   O    114.05000000    70.56000000    31.75000000
   H    115.05000000    69.05000000    35.53000000
   H    116.27000000    70.50000000    33.52000000
   H    114.68000000    70.83000000    34.22000000
   N    114.26000000    68.40000000    32.23000000
   C    113.48000000    67.82000000    31.15000000
   C    112.27000000    67.05000000    31.67000000
   O    112.40000000    66.00000000    32.29000000
   C    114.41000000    66.93000000    30.33000000
   C    113.75000000    65.96000000    29.37000000
   N    114.58000000    65.10000000    28.76000000
   O    112.55000000    65.98000000    29.08000000
   H    114.79000000    67.74000000    32.78000000
   H    112.99000000    68.58000000    30.55000000
   H    114.95000000    66.34000000    31.07000000
   H    115.08000000    67.60000000    29.80000000
   H    115.57000000    65.21000000    28.91000000
   H    114.19000000    64.34000000    28.23000000
   N    111.02000000    67.39000000    31.33000000
   C    109.83000000    66.68000000    31.74000000
   C    109.63000000    65.23000000    31.34000000
   O    108.59000000    64.71000000    31.74000000
   H    110.78000000    68.11000000    30.66000000
   H    108.97000000    67.13000000    31.24000000
   H    109.70000000    66.81000000    32.81000000
   N    110.53000000    64.49000000    30.68000000
   C    110.46000000    63.06000000    30.46000000
   C    110.51000000    62.35000000    31.81000000
   O    111.17000000    62.88000000    32.70000000
   C    111.60000000    62.63000000    29.53000000
   C    111.71000000    61.17000000    29.16000000
   C    112.40000000    60.26000000    29.97000000
   C    111.09000000    60.73000000    27.99000000
   C    112.67000000    59.00000000    29.41000000
   C    111.32000000    59.46000000    27.45000000
   C    112.14000000    58.58000000    28.18000000
   O    112.54000000    57.40000000    27.62000000
   H    111.35000000    64.94000000    30.31000000
   H    109.52000000    62.82000000    29.97000000
   H    112.56000000    62.92000000    29.94000000
   H    111.58000000    63.25000000    28.63000000
   H    112.78000000    60.52000000    30.94000000
   H    110.48000000    61.44000000    27.43000000
   H    113.34000000    58.32000000    29.93000000
   H    110.83000000    59.20000000    26.52000000
   H    112.03000000    57.18000000    26.84000000
   N    109.85000000    61.20000000    31.90000000
   C    109.53000000    60.41000000    33.07000000
   C    110.69000000    59.51000000    33.46000000
   O    111.79000000    59.64000000    32.92000000
   C    108.80000000    61.19000000    34.16000000
   C    109.65000000    61.78000000    35.29000000
   C    107.71000000    60.34000000    34.80000000
   C    109.30000000    63.25000000    35.48000000
   H    109.50000000    60.86000000    31.01000000
   H    108.72000000    59.74000000    32.78000000
   H    108.26000000    62.01000000    33.68000000
   H    110.71000000    61.80000000    35.07000000
   H    109.44000000    61.27000000    36.23000000
   H    107.09000000    59.97000000    33.98000000
   H    108.21000000    59.50000000    35.28000000
   H    107.16000000    60.85000000    35.59000000
   H    109.95000000    63.68000000    36.24000000
   H    109.42000000    63.81000000    34.55000000
   H    108.28000000    63.39000000    35.85000000
   N    110.51000000    58.49000000    34.30000000
   C    111.54000000    57.85000000    35.10000000
   C    111.74000000    56.34000000    35.09000000
   O    112.77000000    55.79000000    35.45000000
   C    111.20000000    58.30000000    36.52000000
   O    109.82000000    58.19000000    36.78000000
   H    109.61000000    58.40000000    34.74000000
   H    112.49000000    58.31000000    34.79000000
   H    111.49000000    59.35000000    36.55000000
   H    111.80000000    57.78000000    37.27000000
   H    109.78000000    58.43000000    37.71000000
   N    110.65000000    55.72000000    34.63000000
   C    110.46000000    54.29000000    34.50000000
   C    110.65000000    53.35000000    35.68000000
   O    111.50000000    52.46000000    35.70000000
   C    111.27000000    53.78000000    33.31000000
   H    109.95000000    56.30000000    34.20000000
   H    109.43000000    54.04000000    34.25000000
   H    112.32000000    54.03000000    33.47000000
   H    111.17000000    52.73000000    33.03000000
   H    110.94000000    54.27000000    32.39000000
   N    109.84000000    53.47000000    36.73000000
   C    109.02000000    54.60000000    37.12000000
   C    107.61000000    54.14000000    37.45000000
   O    107.38000000    53.00000000    37.86000000
   C    109.84000000    55.25000000    38.23000000
   H    110.11000000    52.78000000    37.41000000
   H    108.91000000    55.28000000    36.27000000
   H    109.38000000    56.15000000    38.64000000
   H    109.98000000    54.59000000    39.09000000
   H    110.80000000    55.59000000    37.83000000
   N    106.60000000    55.01000000    37.47000000
   C    106.53000000    56.43000000    37.19000000
   C    105.44000000    56.82000000    36.20000000
   O    105.74000000    57.61000000    35.31000000
   C    106.24000000    57.22000000    38.47000000
   C    106.27000000    58.73000000    38.24000000
   C    106.20000000    59.46000000    39.58000000
   O    105.10000000    59.67000000    40.14000000
   O    107.25000000    60.01000000    39.97000000
   H    105.71000000    54.63000000    37.74000000
   H    107.47000000    56.82000000    36.79000000
   H    107.01000000    57.00000000    39.21000000
   H    105.27000000    56.92000000    38.86000000
   H    105.51000000    59.00000000    37.52000000
   H    107.23000000    59.02000000    37.82000000
   N    104.30000000    56.14000000    36.15000000
   C    103.16000000    56.50000000    35.33000000
   H    102.35800000    56.87200000    35.96700000
   H    103.45100000    57.27600000    34.62200000
   H    102.81200000    55.62300000    34.78500000
   H    104.15000000    55.41000000    36.84000000
  Ca    112.95600000    64.13000000    34.00000000
   O    114.22600000    62.83000000    31.56000000
   H    114.70600000    62.09000000    31.95000000
   H    114.90600000    63.43000000    31.26000000
   O    112.81600000    63.20000000    36.43000000
   H    113.49600000    62.71000000    36.89000000
   H    112.02600000    63.06000000    36.95000000
   O    113.64600000    61.29000000    33.89000000
   H    113.09600000    60.59000000    33.54000000
   H    114.48600000    60.87000000    34.07000000

Ca 1.70



