%chk=loop2.cluster6.chk
%nprocshared=48
%mem=10GB
%nosave
#b3lyp/svp scf=(tight,noincore) Test 
#IOP(5/87=12) Density=Current Pop=(MK,readradii) iop(6/33=2) iop(6/42=6)

loop2.cluster6 

   -2  1 
   C     48.32000000    42.80000000     8.11000000
   C     47.48000000    43.48000000     7.03000000
   O     47.34000000    44.70000000     6.97000000
   H     49.22200000    43.38500000     8.29000000
   H     47.74200000    42.73200000     9.03200000
   H     48.59600000    41.79900000     7.77900000
   N     46.80000000    42.81000000     6.10000000
   C     46.38000000    41.43000000     6.04000000
   C     45.96000000    40.82000000     7.37000000
   O     45.25000000    41.49000000     8.11000000
   C     45.32000000    41.34000000     4.95000000
   C     44.20000000    42.36000000     5.07000000
   O     43.64000000    42.73000000     4.02000000
   O     44.03000000    43.01000000     6.13000000
   H     46.49000000    43.39000000     5.33000000
   H     47.30000000    41.01000000     5.62000000
   H     44.92000000    40.32000000     4.94000000
   H     45.84000000    41.47000000     4.00000000
   N     46.42000000    39.58000000     7.56000000
   C     45.82000000    38.58000000     8.42000000
   C     44.34000000    38.34000000     8.19000000
   O     44.05000000    37.49000000     7.34000000
   C     46.18000000    38.93000000     9.86000000
   H     47.05000000    39.15000000     6.89000000
   H     46.26000000    37.61000000     8.15000000
   H     45.59000000    38.22000000    10.44000000
   H     47.25000000    38.89000000    10.08000000
   H     45.74000000    39.90000000    10.08000000
   N     43.38000000    38.87000000     8.95000000
   C     42.02000000    38.86000000     8.47000000
   C     41.87000000    39.67000000     7.19000000
   O     42.26000000    40.84000000     7.22000000
   C     40.97000000    39.22000000     9.52000000
   C     41.13000000    40.53000000    10.29000000
   O     41.96000000    41.43000000    10.03000000
   O     40.36000000    40.78000000    11.23000000
   H     43.65000000    39.56000000     9.64000000
   H     41.83000000    37.83000000     8.17000000
   H     40.81000000    38.37000000    10.18000000
   H     40.04000000    39.42000000     8.98000000
   N     41.24000000    39.16000000     6.13000000
   C     41.08000000    39.72000000     4.80000000
   C     40.12000000    40.89000000     4.64000000
   O     39.08000000    40.71000000     4.01000000
   H     41.11000000    38.17000000     6.26000000
   H     40.75000000    38.88000000     4.19000000
   H     42.09000000    40.01000000     4.52000000
   N     40.44000000    42.01000000     5.28000000
   C     39.49000000    43.10000000     5.44000000
   C     40.13000000    44.46000000     5.20000000
   O     39.59000000    45.49000000     5.59000000
   C     38.66000000    42.96000000     6.71000000
   C     39.47000000    43.19000000     7.97000000
   N     38.82000000    43.12000000     9.13000000
   O     40.68000000    43.39000000     8.04000000
   H     41.30000000    41.97000000     5.81000000
   H     38.86000000    43.05000000     4.56000000
   H     38.07000000    42.04000000     6.67000000
   H     37.90000000    43.75000000     6.72000000
   H     37.86000000    42.84000000     9.28000000
   H     39.47000000    42.84000000     9.85000000
   N     41.34000000    44.46000000     4.63000000
   C     42.27000000    45.57000000     4.64000000
   C     42.51000000    46.07000000     6.06000000
   O     42.48000000    45.32000000     7.04000000
   H     41.74000000    43.59000000     4.30000000
   H     41.87000000    46.37000000     4.02000000
   H     43.23000000    45.16000000     4.32000000
   N     42.86000000    47.33000000     6.31000000
   C     42.80000000    48.40000000     5.33000000
   C     43.62000000    49.62000000     5.74000000
   O     43.57000000    50.64000000     5.07000000
   C     41.37000000    48.81000000     5.01000000
   C     40.52000000    49.51000000     6.07000000
   O     41.24000000    49.59000000     3.85000000
   H     43.08000000    47.63000000     7.25000000
   H     43.23000000    48.05000000     4.39000000
   H     40.81000000    47.89000000     4.85000000
   H     41.65000000    50.42000000     4.10000000
   H     40.87000000    50.53000000     6.25000000
   H     39.48000000    49.55000000     5.75000000
   H     40.56000000    48.88000000     6.96000000
   N     44.48000000    49.52000000     6.76000000
   C     45.31000000    50.53000000     7.37000000
   C     44.68000000    51.91000000     7.53000000
   O     44.82000000    52.80000000     6.69000000
   C     46.74000000    50.57000000     6.85000000
   C     47.40000000    49.20000000     6.93000000
   C     47.62000000    51.61000000     7.54000000
   C     48.76000000    48.92000000     6.30000000
   H     44.53000000    48.62000000     7.21000000
   H     45.45000000    50.05000000     8.34000000
   H     46.68000000    50.85000000     5.79000000
   H     46.77000000    48.48000000     6.41000000
   H     47.39000000    48.97000000     8.00000000
   H     47.08000000    52.55000000     7.39000000
   H     47.76000000    51.41000000     8.60000000
   H     48.52000000    51.51000000     6.94000000
   H     48.60000000    48.86000000     5.22000000
   H     49.51000000    49.65000000     6.58000000
   H     49.07000000    47.96000000     6.70000000
   N     43.87000000    52.19000000     8.55000000
   C     43.46000000    51.27000000     9.60000000
   C     44.31000000    51.28000000    10.87000000
   O     45.22000000    50.48000000    11.01000000
   C     41.96000000    51.34000000     9.86000000
   C     41.45000000    52.72000000    10.26000000
   O     40.26000000    52.75000000    10.63000000
   O     42.15000000    53.76000000    10.32000000
   H     43.51000000    53.13000000     8.59000000
   H     43.58000000    50.24000000     9.25000000
   H     41.67000000    50.64000000    10.64000000
   H     41.46000000    51.05000000     8.94000000
   N     43.91000000    52.08000000    11.87000000
   C     44.23000000    51.77000000    13.25000000
   C     43.01000000    51.37000000    14.05000000
   O     41.93000000    51.90000000    13.78000000
   C     45.15000000    52.84000000    13.84000000
   C     44.45000000    54.16000000    14.06000000
   C     44.25000000    55.15000000    13.09000000
   C     43.91000000    54.38000000    15.33000000
   C     43.51000000    56.31000000    13.35000000
   C     43.15000000    55.53000000    15.60000000
   C     42.91000000    56.48000000    14.60000000
   H     43.30000000    52.85000000    11.66000000
   H     44.94000000    50.94000000    13.20000000
   H     46.00000000    52.96000000    13.16000000
   H     45.57000000    52.45000000    14.76000000
   H     44.73000000    55.02000000    12.13000000
   H     43.93000000    53.58000000    16.06000000
   H     43.50000000    57.08000000    12.59000000
   H     42.89000000    55.61000000    16.64000000
   H     42.34000000    57.36000000    14.85000000
   N     43.11000000    50.40000000    14.96000000
   C     44.11000000    49.37000000    15.15000000
   C     44.44000000    48.52000000    13.93000000
   O     43.85000000    48.54000000    12.85000000
   C     43.63000000    48.52000000    16.32000000
   C     42.75000000    49.50000000    17.09000000
   C     42.06000000    50.23000000    15.94000000
   H     44.97000000    49.88000000    15.59000000
   H     43.03000000    47.71000000    15.90000000
   H     44.45000000    48.14000000    16.92000000
   H     42.04000000    49.04000000    17.78000000
   H     43.50000000    50.12000000    17.57000000
   H     41.32000000    49.54000000    15.54000000
   H     41.55000000    51.15000000    16.26000000
   N     45.46000000    47.68000000    14.09000000
   C     45.92000000    46.71000000    13.11000000
   C     47.29000000    46.16000000    13.49000000
   O     47.43000000    44.99000000    13.84000000
   C     44.94000000    45.58000000    12.81000000
   C     44.33000000    44.91000000    14.03000000
   C     43.30000000    43.91000000    13.52000000
   O     42.23000000    44.38000000    13.06000000
   O     43.58000000    42.70000000    13.61000000
   H     45.91000000    47.64000000    15.00000000
   H     46.02000000    47.28000000    12.18000000
   H     45.50000000    44.91000000    12.16000000
   H     44.20000000    46.04000000    12.16000000
   H     43.80000000    45.62000000    14.67000000
   H     45.21000000    44.44000000    14.46000000
   N     48.38000000    46.93000000    13.58000000
   C     48.69000000    48.33000000    13.41000000
   H     49.65200000    48.43000000    12.90800000
   H     47.91500000    48.80400000    12.80700000
   H     48.73800000    48.81300000    14.38600000
   H     49.24000000    46.40000000    13.61000000
  Ca     43.26000000    43.17000000     8.63000000
   O     45.15000000    45.15000000     8.29000000
   H     46.04000000    45.11000000     7.94000000
   H     44.99000000    46.08000000     8.42000000
   O     44.72000000    42.60000000    10.90000000
   H     44.44000000    42.69000000    11.81000000
   H     45.63000000    42.30000000    10.96000000
   O     42.08000000    45.14000000    10.11000000
   H     42.04000000    44.96000000    11.04000000
   H     41.17000000    45.30000000     9.85000000

Ca 1.70



