%chk=loop1.cluster62.chk
%nprocshared=48
%mem=10GB
%nosave
#b3lyp/svp scf=(tight,noincore) Test 
#IOP(5/87=12) Density=Current Pop=(MK,readradii) iop(6/33=2) iop(6/42=6)

loop1.cluster62 

   0  1 
   C     71.98000000    47.63000000    19.42000000
   C     73.18000000    47.43000000    18.51000000
   O     73.59000000    46.35000000    18.10000000
   H     71.11800000    47.10900000    19.00400000
   H     72.20300000    47.23000000    20.40900000
   H     71.75700000    48.69400000    19.49900000
   N     73.91000000    48.53000000    18.31000000
   C     75.16000000    48.56000000    17.58000000
   C     76.36000000    48.01000000    18.34000000
   O     77.41000000    48.64000000    18.44000000
   C     75.35000000    50.01000000    17.14000000
   C     76.25000000    50.11000000    15.92000000
   O     76.90000000    51.18000000    15.81000000
   O     76.47000000    49.15000000    15.15000000
   H     73.59000000    49.42000000    18.68000000
   H     75.00000000    47.98000000    16.67000000
   H     75.71000000    50.67000000    17.92000000
   H     74.37000000    50.40000000    16.83000000
   N     76.26000000    46.71000000    18.65000000
   C     77.25000000    45.93000000    19.36000000
   C     78.59000000    45.85000000    18.63000000
   O     79.55000000    45.63000000    19.37000000
   C     76.65000000    44.53000000    19.51000000
   C     75.67000000    44.54000000    20.68000000
   C     75.40000000    43.11000000    21.15000000
   C     74.26000000    42.87000000    22.14000000
   N     72.95000000    43.50000000    21.90000000
   H     75.34000000    46.34000000    18.51000000
   H     77.37000000    46.31000000    20.37000000
   H     77.41000000    43.77000000    19.70000000
   H     76.14000000    44.27000000    18.59000000
   H     74.72000000    45.02000000    20.46000000
   H     76.07000000    44.95000000    21.61000000
   H     76.30000000    42.59000000    21.48000000
   H     75.14000000    42.63000000    20.21000000
   H     74.66000000    43.28000000    23.07000000
   H     74.20000000    41.81000000    22.37000000
   H     72.34000000    43.41000000    22.70000000
   H     73.09000000    44.46000000    21.63000000
   H     72.47000000    43.18000000    21.07000000
   N     78.72000000    46.04000000    17.32000000
   C     79.91000000    45.97000000    16.51000000
   C     80.49000000    47.37000000    16.37000000
   O     81.70000000    47.51000000    16.20000000
   C     79.64000000    45.28000000    15.17000000
   C     78.57000000    45.95000000    14.34000000
   O     77.56000000    45.30000000    13.99000000
   O     78.67000000    47.09000000    13.83000000
   H     77.84000000    46.30000000    16.89000000
   H     80.65000000    45.43000000    17.10000000
   H     79.35000000    44.26000000    15.42000000
   H     80.57000000    45.27000000    14.60000000
   N     79.64000000    48.40000000    16.38000000
   C     80.09000000    49.78000000    16.33000000
   C     80.37000000    50.39000000    14.97000000
   O     81.45000000    50.96000000    14.84000000
   H     78.71000000    48.25000000    16.74000000
   H     80.90000000    49.91000000    17.05000000
   H     79.33000000    50.34000000    16.87000000
   N     79.57000000    50.25000000    13.91000000
   C     79.71000000    50.95000000    12.66000000
   C     78.79000000    52.15000000    12.45000000
   O     78.61000000    52.76000000    11.40000000
   C     79.59000000    49.87000000    11.59000000
   C     78.26000000    49.13000000    11.60000000
   O     77.27000000    49.56000000    12.24000000
   O     78.22000000    47.94000000    11.23000000
   H     78.77000000    49.65000000    14.05000000
   H     80.71000000    51.39000000    12.57000000
   H     80.38000000    49.12000000    11.69000000
   H     79.66000000    50.35000000    10.61000000
   N     77.89000000    52.38000000    13.42000000
   C     76.79000000    53.31000000    13.30000000
   C     75.53000000    52.85000000    12.57000000
   O     74.78000000    53.73000000    12.15000000
   H     77.90000000    51.75000000    14.21000000
   H     77.17000000    54.13000000    12.69000000
   H     76.48000000    53.82000000    14.21000000
   N     75.33000000    51.58000000    12.21000000
   C     74.02000000    51.11000000    11.81000000
   C     73.47000000    49.97000000    12.66000000
   O     74.16000000    49.17000000    13.29000000
   C     73.95000000    50.76000000    10.33000000
   C     73.96000000    51.99000000     9.42000000
   O     75.02000000    49.95000000     9.91000000
   H     75.99000000    50.85000000    12.42000000
   H     73.32000000    51.95000000    11.87000000
   H     73.02000000    50.22000000    10.15000000
   H     75.86000000    50.43000000     9.90000000
   H     73.65000000    51.78000000     8.40000000
   H     73.17000000    52.61000000     9.84000000
   H     74.94000000    52.46000000     9.55000000
   N     72.15000000    49.73000000    12.59000000
   C     71.43000000    48.72000000    13.34000000
   C     70.74000000    47.80000000    12.34000000
   O     69.90000000    48.28000000    11.58000000
   C     70.44000000    49.21000000    14.39000000
   C     71.31000000    50.01000000    15.35000000
   C     69.70000000    48.08000000    15.08000000
   C     70.48000000    50.94000000    16.24000000
   H     71.57000000    50.35000000    12.05000000
   H     72.18000000    48.11000000    13.84000000
   H     69.69000000    49.84000000    13.91000000
   H     71.99000000    50.67000000    14.81000000
   H     71.91000000    49.40000000    16.03000000
   H     68.90000000    47.71000000    14.45000000
   H     70.37000000    47.26000000    15.34000000
   H     69.25000000    48.43000000    16.01000000
   H     69.97000000    51.56000000    15.50000000
   H     69.74000000    50.45000000    16.88000000
   H     71.14000000    51.51000000    16.89000000
   N     71.28000000    46.59000000    12.24000000
   C     70.68000000    45.54000000    11.43000000
   C     69.45000000    44.95000000    12.10000000
   O     69.36000000    45.01000000    13.32000000
   C     71.64000000    44.43000000    11.02000000
   C     72.82000000    44.88000000    10.16000000
   O     72.14000000    43.86000000    12.21000000
   H     72.05000000    46.29000000    12.83000000
   H     70.34000000    45.99000000    10.50000000
   H     71.01000000    43.70000000    10.51000000
   H     72.98000000    44.28000000    12.42000000
   H     72.45000000    45.48000000     9.33000000
   H     73.56000000    45.41000000    10.76000000
   H     73.31000000    44.00000000     9.75000000
   N     68.57000000    44.30000000    11.33000000
   C     67.48000000    43.64000000    12.02000000
   C     67.85000000    42.46000000    12.91000000
   O     67.04000000    41.98000000    13.70000000
   C     66.45000000    43.16000000    11.00000000
   C     65.61000000    44.37000000    10.59000000
   O     67.05000000    42.62000000     9.84000000
   H     68.77000000    44.05000000    10.37000000
   H     66.98000000    44.32000000    12.70000000
   H     65.86000000    42.34000000    11.42000000
   H     66.58000000    42.75000000     9.01000000
   H     64.78000000    44.00000000    10.00000000
   H     65.19000000    44.87000000    11.47000000
   H     66.15000000    45.11000000    10.01000000
   N     69.10000000    42.00000000    12.85000000
   C     69.66000000    41.07000000    13.81000000
   C     70.12000000    41.83000000    15.05000000
   O     69.73000000    41.44000000    16.15000000
   C     70.85000000    40.32000000    13.21000000
   C     71.38000000    39.15000000    14.02000000
   C     72.38000000    38.37000000    13.16000000
   C     73.04000000    37.29000000    14.01000000
   N     74.15000000    36.70000000    13.23000000
   H     69.78000000    42.45000000    12.25000000
   H     68.98000000    40.31000000    14.19000000
   H     71.65000000    41.05000000    13.07000000
   H     70.62000000    40.02000000    12.19000000
   H     70.54000000    38.55000000    14.36000000
   H     71.92000000    39.61000000    14.85000000
   H     73.12000000    39.05000000    12.74000000
   H     71.80000000    37.84000000    12.41000000
   H     72.34000000    36.51000000    14.30000000
   H     73.50000000    37.74000000    14.88000000
   H     73.73000000    36.29000000    12.41000000
   H     74.82000000    37.39000000    12.96000000
   H     74.52000000    35.93000000    13.78000000
   N     70.79000000    42.97000000    14.91000000
   C     71.06000000    43.91000000    15.98000000
   C     69.88000000    44.50000000    16.74000000
   O     70.06000000    44.89000000    17.89000000
   C     71.98000000    45.03000000    15.48000000
   C     73.40000000    44.54000000    15.23000000
   C     74.24000000    45.67000000    14.64000000
   O     74.18000000    45.99000000    13.44000000
   O     75.11000000    46.26000000    15.32000000
   H     71.05000000    43.21000000    13.97000000
   H     71.64000000    43.36000000    16.73000000
   H     72.00000000    45.79000000    16.27000000
   H     71.51000000    45.39000000    14.57000000
   H     73.46000000    43.58000000    14.70000000
   H     73.74000000    44.24000000    16.22000000
   N     68.70000000    44.57000000    16.12000000
   C     67.40000000    44.84000000    16.69000000
   H     66.66100000    44.18000000    16.23700000
   H     67.43100000    44.66600000    17.76600000
   H     67.12600000    45.87700000    16.49700000
   H     68.61000000    44.35000000    15.14000000
  Ca     76.22000000    47.51000000    13.27000000
   O     75.51000000    47.28000000    10.62000000
   H     75.31000000    48.09000000    10.15000000
   H     75.90000000    46.71000000     9.97000000

Ca 1.70



