%chk=loop3.cluster25.chk
%nprocshared=48
%mem=10GB
%nosave
#b3lyp/svp scf=(tight,noincore) Test 
#IOP(5/87=12) Density=Current Pop=(MK,readradii) iop(6/33=2) iop(6/42=6)

loop3.cluster25 

   0  1 
   C     72.76600000    70.35000000    28.18000000
   C     71.71600000    70.32000000    29.27000000
   O     71.42600000    69.22000000    29.74000000
   H     73.69300000    69.91800000    28.55700000
   H     72.41800000    69.77200000    27.32400000
   H     72.94500000    71.38100000    27.87500000
   N     71.16600000    71.51000000    29.54000000
   C     70.07600000    71.70000000    30.47000000
   C     68.73600000    71.65000000    29.75000000
   O     68.08600000    72.69000000    29.66000000
   C     70.23600000    72.98000000    31.29000000
   C     69.20600000    73.21000000    32.38000000
   O     68.96600000    74.35000000    32.82000000
   O     68.89600000    72.18000000    33.02000000
   H     71.55600000    72.30000000    29.04000000
   H     70.18600000    70.87000000    31.16000000
   H     70.23600000    73.88000000    30.66000000
   H     71.19600000    72.86000000    31.79000000
   N     68.43600000    70.54000000    29.07000000
   C     67.26600000    70.42000000    28.24000000
   C     65.92600000    70.69000000    28.92000000
   O     64.95600000    71.01000000    28.24000000
   C     67.23600000    69.05000000    27.56000000
   C     66.28600000    68.91000000    26.37000000
   C     66.50600000    67.57000000    25.67000000
   C     65.41600000    67.39000000    24.62000000
   N     65.66600000    66.25000000    23.73000000
   H     69.05600000    69.74000000    29.18000000
   H     67.24600000    71.15000000    27.43000000
   H     66.95600000    68.39000000    28.37000000
   H     68.19600000    68.71000000    27.15000000
   H     66.48600000    69.68000000    25.62000000
   H     65.22600000    69.00000000    26.62000000
   H     66.49600000    66.75000000    26.39000000
   H     67.50600000    67.60000000    25.23000000
   H     65.40600000    68.32000000    24.05000000
   H     64.40600000    67.27000000    25.01000000
   H     64.93600000    66.19000000    23.03000000
   H     66.52600000    66.41000000    23.24000000
   H     65.81600000    65.35000000    24.18000000
   N     65.94600000    70.65000000    30.25000000
   C     64.84600000    70.73000000    31.19000000
   C     64.70600000    72.11000000    31.83000000
   O     63.71600000    72.41000000    32.49000000
   C     65.08600000    69.68000000    32.28000000
   C     66.42600000    69.86000000    32.99000000
   O     67.49600000    69.42000000    32.52000000
   O     66.47600000    70.43000000    34.10000000
   H     66.80600000    70.22000000    30.54000000
   H     63.88600000    70.48000000    30.74000000
   H     65.12600000    68.69000000    31.83000000
   H     64.29600000    69.67000000    33.03000000
   N     65.69600000    72.97000000    31.61000000
   C     65.49600000    74.38000000    31.87000000
   C     65.72600000    74.76000000    33.33000000
   O     65.45600000    75.90000000    33.69000000
   H     66.45600000    72.76000000    30.98000000
   H     64.51600000    74.77000000    31.56000000
   H     66.21600000    74.96000000    31.30000000
   N     66.14600000    73.86000000    34.21000000
   C     66.14600000    74.19000000    35.62000000
   C     67.26600000    75.09000000    36.12000000
   O     67.05600000    75.63000000    37.20000000
   C     66.01600000    72.96000000    36.52000000
   C     67.33600000    72.30000000    36.88000000
   N     67.53600000    71.92000000    38.15000000
   O     68.25600000    72.18000000    36.08000000
   H     66.43600000    72.95000000    33.88000000
   H     65.23600000    74.78000000    35.79000000
   H     65.33600000    72.32000000    35.97000000
   H     65.55600000    73.28000000    37.46000000
   H     66.76600000    72.05000000    38.80000000
   H     68.42600000    71.54000000    38.43000000
   N     68.36600000    75.33000000    35.40000000
   C     69.40600000    76.29000000    35.71000000
   C     70.80600000    75.68000000    35.66000000
   O     71.77600000    76.44000000    35.61000000
   H     68.59600000    74.72000000    34.63000000
   H     69.26600000    76.75000000    36.69000000
   H     69.28600000    77.03000000    34.93000000
   N     70.85600000    74.35000000    35.68000000
   C     72.01600000    73.54000000    35.99000000
   C     72.06600000    72.30000000    35.12000000
   O     71.07600000    71.66000000    34.78000000
   C     72.02600000    73.14000000    37.46000000
   C     71.62600000    74.19000000    38.47000000
   C     72.53600000    75.17000000    38.88000000
   C     70.30600000    74.28000000    38.93000000
   C     72.03600000    76.18000000    39.71000000
   C     69.84600000    75.29000000    39.78000000
   C     70.72600000    76.31000000    40.21000000
   O     70.33600000    77.34000000    41.02000000
   H     70.04600000    73.80000000    35.41000000
   H     72.86600000    74.15000000    35.68000000
   H     73.03600000    72.75000000    37.60000000
   H     71.36600000    72.29000000    37.63000000
   H     73.59600000    75.17000000    38.63000000
   H     69.57600000    73.54000000    38.63000000
   H     72.71600000    76.95000000    40.03000000
   H     68.80600000    75.36000000    40.07000000
   H     69.38600000    77.40000000    41.11000000
   N     73.29600000    71.88000000    34.82000000
   C     73.50600000    70.57000000    34.24000000
   C     74.02600000    69.59000000    35.29000000
   O     74.52600000    70.00000000    36.34000000
   C     74.49600000    70.71000000    33.09000000
   C     74.26600000    71.84000000    32.09000000
   C     74.61600000    69.40000000    32.31000000
   C     75.61600000    72.06000000    31.41000000
   H     74.10600000    72.43000000    35.08000000
   H     72.59600000    70.12000000    33.85000000
   H     75.49600000    70.74000000    33.52000000
   H     74.11600000    72.76000000    32.65000000
   H     73.52600000    71.59000000    31.32000000
   H     75.18600000    69.53000000    31.39000000
   H     75.19600000    68.68000000    32.90000000
   H     73.62600000    69.02000000    32.04000000
   H     76.01600000    71.25000000    30.81000000
   H     75.61600000    72.92000000    30.75000000
   H     76.39600000    72.23000000    32.15000000
   N     74.01600000    68.29000000    35.00000000
   C     74.53600000    67.21000000    35.82000000
   C     75.20600000    66.09000000    35.04000000
   O     75.28600000    66.15000000    33.81000000
   C     73.41600000    66.49000000    36.57000000
   O     72.71600000    65.65000000    35.68000000
   H     73.62600000    68.12000000    34.08000000
   H     75.19600000    67.61000000    36.59000000
   H     72.75600000    67.19000000    37.08000000
   H     73.81600000    65.85000000    37.36000000
   H     72.05600000    65.22000000    36.21000000
   N     75.89600000    65.18000000    35.72000000
   C     76.61600000    64.06000000    35.13000000
   C     75.79600000    63.26000000    34.12000000
   O     76.21600000    63.01000000    33.00000000
   C     77.25600000    63.18000000    36.19000000
   H     75.66600000    65.12000000    36.70000000
   H     77.49600000    64.42000000    34.60000000
   H     77.82600000    62.39000000    35.69000000
   H     77.96600000    63.79000000    36.74000000
   H     76.53600000    62.67000000    36.83000000
   N     74.51600000    63.10000000    34.46000000
   C     73.61600000    62.28000000    33.67000000
   C     73.17600000    63.01000000    32.40000000
   O     72.99600000    62.42000000    31.34000000
   C     72.40600000    61.87000000    34.50000000
   H     74.08600000    63.49000000    35.29000000
   H     74.13600000    61.38000000    33.35000000
   H     72.83600000    61.31000000    35.33000000
   H     72.04600000    62.81000000    34.92000000
   H     71.61600000    61.34000000    33.98000000
   N     72.82600000    64.29000000    32.55000000
   C     72.47600000    65.22000000    31.50000000
   C     73.59600000    65.52000000    30.51000000
   O     73.36600000    65.67000000    29.31000000
   C     72.01600000    66.54000000    32.12000000
   C     70.75600000    66.29000000    32.94000000
   C     70.16600000    67.51000000    33.63000000
   O     69.05600000    67.51000000    34.19000000
   O     70.77600000    68.60000000    33.57000000
   H     72.96600000    64.64000000    33.48000000
   H     71.69600000    64.74000000    30.92000000
   H     71.79600000    67.30000000    31.37000000
   H     72.72600000    66.91000000    32.86000000
   H     70.94600000    65.55000000    33.72000000
   H     70.02600000    65.88000000    32.25000000
   N     74.85600000    65.71000000    30.93000000
   C     76.02600000    65.85000000    30.08000000
   H     76.87500000    65.35000000    30.54600000
   H     75.82700000    65.39700000    29.10900000
   H     76.25600000    66.90700000    29.94800000
   H     74.82600000    65.80000000    31.93000000
  Ca     69.00000000    70.16000000    34.48000000
   O     70.50000000    68.89000000    36.74000000
   H     70.90000000    69.26000000    37.53000000
   H     70.32000000    67.98000000    36.95000000
   O     67.52000000    68.69000000    36.56000000
   H     67.49000000    68.46000000    37.48000000
   H     66.62000000    68.57000000    36.25000000

Ca 1.70



