%chk=loop3.cluster69.chk
%nprocshared=48
%mem=10GB
%nosave
#b3lyp/svp scf=(tight,noincore) Test 
#IOP(5/87=12) Density=Current Pop=(MK,readradii) iop(6/33=2) iop(6/42=6)

loop3.cluster69 

   0  1 
   C     62.41000000    20.73000000     5.58000000
   C     62.54000000    21.06000000     4.10000000
   O     61.97000000    20.35000000     3.28000000
   H     61.35500000    20.66300000     5.84600000
   H     62.89600000    19.77600000     5.78400000
   H     62.88400000    21.51400000     6.17100000
   N     63.25000000    22.13000000     3.74000000
   C     63.64000000    22.44000000     2.37000000
   C     63.37000000    23.88000000     1.97000000
   O     62.99000000    24.69000000     2.81000000
   C     65.08000000    22.01000000     2.13000000
   C     66.08000000    22.24000000     3.25000000
   O     66.39000000    21.22000000     3.90000000
   O     66.55000000    23.39000000     3.39000000
   H     63.59000000    22.74000000     4.46000000
   H     63.03000000    21.85000000     1.69000000
   H     65.55000000    22.58000000     1.33000000
   H     65.09000000    20.95000000     1.86000000
   N     63.76000000    24.23000000     0.74000000
   C     63.62000000    25.52000000     0.10000000
   C     64.31000000    26.72000000     0.74000000
   O     64.55000000    27.66000000    -0.01000000
   C     62.14000000    25.86000000    -0.03000000
   C     61.49000000    24.84000000    -0.96000000
   C     60.20000000    25.46000000    -1.48000000
   C     60.47000000    26.41000000    -2.66000000
   N     59.25000000    26.73000000    -3.41000000
   H     64.08000000    23.47000000     0.16000000
   H     64.00000000    25.47000000    -0.93000000
   H     62.16000000    26.90000000    -0.38000000
   H     61.59000000    25.94000000     0.90000000
   H     61.19000000    24.00000000    -0.35000000
   H     62.20000000    24.64000000    -1.76000000
   H     59.60000000    25.92000000    -0.69000000
   H     59.66000000    24.55000000    -1.74000000
   H     61.22000000    26.08000000    -3.38000000
   H     60.91000000    27.26000000    -2.15000000
   H     58.72000000    27.44000000    -2.93000000
   H     59.45000000    27.10000000    -4.33000000
   H     58.62000000    25.95000000    -3.56000000
   N     64.53000000    26.78000000     2.06000000
   C     64.95000000    27.98000000     2.76000000
   C     65.64000000    27.60000000     4.06000000
   O     65.17000000    26.69000000     4.75000000
   C     63.81000000    28.96000000     3.02000000
   C     64.35000000    30.23000000     3.66000000
   O     65.08000000    30.96000000     2.96000000
   O     63.99000000    30.46000000     4.84000000
   H     64.16000000    26.06000000     2.66000000
   H     65.64000000    28.42000000     2.04000000
   H     63.09000000    28.55000000     3.73000000
   H     63.24000000    29.17000000     2.11000000
   N     66.79000000    28.23000000     4.30000000
   C     67.75000000    27.81000000     5.30000000
   C     67.45000000    28.36000000     6.68000000
   O     66.43000000    29.00000000     6.88000000
   H     67.05000000    29.01000000     3.72000000
   H     68.77000000    28.07000000     5.02000000
   H     67.74000000    26.72000000     5.35000000
   N     68.34000000    28.12000000     7.66000000
   C     68.06000000    28.54000000     9.01000000
   C     68.10000000    30.05000000     9.20000000
   O     67.29000000    30.58000000     9.96000000
   C     68.97000000    27.88000000    10.05000000
   C     68.78000000    26.38000000    10.27000000
   N     69.34000000    25.73000000    11.29000000
   O     68.12000000    25.77000000     9.43000000
   H     69.14000000    27.51000000     7.54000000
   H     67.05000000    28.19000000     9.24000000
   H     68.95000000    28.34000000    11.03000000
   H     69.95000000    28.12000000     9.64000000
   H     69.94000000    26.16000000    11.98000000
   H     69.19000000    24.75000000    11.47000000
   N     69.03000000    30.73000000     8.53000000
   C     69.27000000    32.14000000     8.75000000
   C     69.52000000    32.42000000    10.23000000
   O     70.09000000    31.61000000    10.96000000
   H     69.61000000    30.20000000     7.90000000
   H     68.49000000    32.73000000     8.28000000
   H     70.18000000    32.46000000     8.23000000
   N     68.93000000    33.55000000    10.62000000
   C     68.74000000    34.12000000    11.94000000
   C     67.86000000    33.27000000    12.85000000
   O     68.00000000    33.38000000    14.06000000
   C     70.09000000    34.54000000    12.53000000
   C     70.77000000    35.73000000    11.90000000
   C     72.13000000    35.68000000    11.57000000
   C     70.03000000    36.89000000    11.66000000
   C     72.82000000    36.77000000    11.03000000
   C     70.68000000    38.02000000    11.14000000
   C     72.05000000    37.94000000    10.83000000
   O     72.60000000    39.12000000    10.43000000
   H     68.67000000    34.18000000     9.87000000
   H     68.24000000    35.09000000    11.88000000
   H     70.72000000    33.66000000    12.43000000
   H     69.97000000    34.78000000    13.58000000
   H     72.67000000    34.77000000    11.79000000
   H     68.98000000    36.98000000    11.88000000
   H     73.89000000    36.75000000    10.93000000
   H     70.21000000    38.99000000    11.10000000
   H     71.98000000    39.68000000     9.95000000
   N     67.05000000    32.41000000    12.22000000
   C     65.95000000    31.66000000    12.79000000
   C     64.97000000    32.60000000    13.48000000
   O     63.79000000    32.43000000    13.16000000
   C     66.36000000    30.56000000    13.78000000
   C     67.31000000    29.59000000    13.08000000
   C     65.15000000    29.80000000    14.31000000
   C     67.78000000    28.46000000    13.98000000
   H     67.37000000    32.15000000    11.30000000
   H     65.42000000    31.21000000    11.96000000
   H     66.85000000    30.96000000    14.66000000
   H     68.18000000    30.09000000    12.65000000
   H     66.81000000    29.13000000    12.23000000
   H     65.54000000    29.02000000    14.97000000
   H     64.55000000    30.52000000    14.86000000
   H     64.55000000    29.34000000    13.53000000
   H     66.99000000    27.77000000    14.28000000
   H     68.55000000    27.92000000    13.42000000
   H     68.28000000    28.88000000    14.86000000
   N     65.36000000    33.55000000    14.33000000
   C     64.49000000    34.69000000    14.52000000
   C     63.22000000    34.53000000    15.35000000
   O     62.23000000    35.26000000    15.30000000
   C     65.44000000    35.79000000    14.99000000
   O     66.16000000    36.39000000    13.94000000
   H     66.33000000    33.68000000    14.55000000
   H     64.17000000    35.07000000    13.55000000
   H     66.17000000    35.47000000    15.73000000
   H     64.74000000    36.45000000    15.50000000
   H     66.80000000    36.93000000    14.41000000
   N     63.19000000    33.44000000    16.12000000
   C     61.99000000    32.82000000    16.64000000
   C     60.83000000    32.70000000    15.66000000
   O     59.71000000    32.60000000    16.16000000
   C     61.62000000    33.38000000    18.01000000
   H     64.06000000    32.92000000    16.22000000
   H     62.31000000    31.78000000    16.72000000
   H     61.12000000    34.34000000    17.99000000
   H     60.87000000    32.72000000    18.44000000
   H     62.46000000    33.50000000    18.69000000
   N     61.02000000    32.73000000    14.34000000
   C     59.99000000    32.64000000    13.34000000
   C     59.63000000    31.19000000    13.00000000
   O     60.46000000    30.28000000    13.07000000
   C     60.38000000    33.48000000    12.13000000
   H     62.01000000    32.75000000    14.13000000
   H     59.16000000    33.19000000    13.78000000
   H     61.30000000    33.12000000    11.67000000
   H     59.56000000    33.62000000    11.43000000
   H     60.60000000    34.51000000    12.44000000
   N     58.40000000    31.04000000    12.51000000
   C     57.76000000    29.94000000    11.82000000
   C     57.65000000    28.67000000    12.66000000
   O     57.40000000    27.60000000    12.10000000
   C     58.36000000    29.72000000    10.43000000
   C     58.03000000    30.79000000     9.40000000
   C     58.35000000    30.60000000     7.92000000
   O     57.45000000    30.49000000     7.05000000
   O     59.53000000    30.38000000     7.60000000
   H     57.90000000    31.91000000    12.55000000
   H     56.73000000    30.23000000    11.62000000
   H     57.96000000    28.81000000     9.98000000
   H     59.44000000    29.61000000    10.41000000
   H     58.70000000    31.62000000     9.65000000
   H     56.99000000    31.03000000     9.63000000
   N     57.81000000    28.74000000    13.98000000
   C     58.15000000    27.63000000    14.84000000
   H     59.03000000    27.88500000    15.43000000
   H     57.31500000    27.41700000    15.50700000
   H     58.36300000    26.75100000    14.23200000
   H     57.70000000    29.66000000    14.39000000
  Ca     61.95000000    30.05000000     6.46000000
   O     64.28000000    30.05000000     7.75000000
   H     65.01000000    29.69000000     7.24000000
   H     64.33000000    29.61000000     8.59000000
   O     59.88000000    27.77000000     6.17000000
   H     59.23000000    28.24000000     5.65000000
   H     59.37000000    27.41000000     6.90000000
   O     62.03000000    28.62000000     8.83000000
   H     62.20000000    27.68000000     8.96000000
   H     62.12000000    29.00000000     9.70000000
   O     60.94000000    30.06000000     3.88000000
   H     60.91000000    30.83000000     3.30000000
   H     60.02000000    29.92000000     4.12000000
   O     61.89000000    31.99000000     8.22000000
   H     61.41000000    32.79000000     8.00000000
   H     62.58000000    32.28000000     8.81000000
   O     61.67000000    32.74000000     5.34000000
   H     61.83000000    33.55000000     5.82000000
   H     62.09000000    32.88000000     4.49000000
   O     63.35000000    27.77000000     6.30000000
   H     63.72000000    27.56000000     7.15000000
   H     63.88000000    27.27000000     5.68000000

Ca 1.70



