%chk=loop3.cluster112.chk
%nprocshared=48
%mem=10GB
%nosave
#b3lyp/svp scf=(tight,noincore) Test 
#IOP(5/87=12) Density=Current Pop=(MK,readradii) iop(6/33=2) iop(6/42=6)

loop3.cluster112 

   0  1 
   C    111.97000000    41.61000000    14.50000000
   C    112.97000000    42.73000000    14.71000000
   O    112.59000000    43.89000000    14.53000000
   H    111.06800000    42.01100000    14.03700000
   H    112.40500000    40.85100000    13.85000000
   H    111.71600000    41.16300000    15.46100000
   N    114.22000000    42.39000000    15.02000000
   C    115.27000000    43.33000000    15.36000000
   C    116.20000000    43.64000000    14.20000000
   O    116.14000000    42.92000000    13.20000000
   C    116.06000000    42.81000000    16.56000000
   C    116.68000000    41.42000000    16.55000000
   O    117.15000000    41.06000000    15.45000000
   O    117.05000000    40.87000000    17.61000000
   H    114.45000000    41.41000000    15.07000000
   H    114.95000000    44.36000000    15.49000000
   H    115.51000000    42.96000000    17.49000000
   H    116.93000000    43.43000000    16.76000000
   N    117.17000000    44.54000000    14.31000000
   C    118.36000000    44.50000000    13.48000000
   C    118.12000000    44.97000000    12.06000000
   O    118.93000000    44.55000000    11.23000000
   C    119.41000000    45.36000000    14.19000000
   C    120.79000000    45.33000000    13.56000000
   C    121.86000000    46.16000000    14.27000000
   C    123.21000000    46.12000000    13.55000000
   N    124.15000000    47.22000000    13.85000000
   H    117.12000000    45.11000000    15.14000000
   H    118.79000000    43.50000000    13.46000000
   H    119.55000000    45.17000000    15.26000000
   H    119.03000000    46.37000000    14.11000000
   H    120.78000000    45.86000000    12.61000000
   H    121.09000000    44.28000000    13.50000000
   H    122.03000000    45.69000000    15.24000000
   H    121.65000000    47.22000000    14.37000000
   H    122.99000000    45.96000000    12.49000000
   H    123.69000000    45.19000000    13.83000000
   H    125.04000000    47.04000000    13.41000000
   H    123.73000000    48.09000000    13.57000000
   H    124.23000000    47.33000000    14.85000000
   N    117.03000000    45.69000000    11.78000000
   C    116.50000000    45.99000000    10.47000000
   C    116.00000000    47.42000000    10.29000000
   O    115.30000000    47.66000000     9.31000000
   C    115.36000000    45.03000000    10.18000000
   C    114.32000000    44.76000000    11.25000000
   O    113.48000000    43.87000000    10.98000000
   O    114.21000000    45.54000000    12.23000000
   H    116.36000000    45.80000000    12.53000000
   H    117.33000000    45.87000000     9.77000000
   H    115.76000000    44.07000000     9.86000000
   H    114.75000000    45.45000000     9.37000000
   N    116.34000000    48.25000000    11.28000000
   C    115.92000000    49.64000000    11.31000000
   C    116.56000000    50.36000000    12.48000000
   O    117.38000000    49.74000000    13.16000000
   H    117.07000000    48.12000000    11.96000000
   H    114.83000000    49.61000000    11.39000000
   H    116.26000000    50.19000000    10.43000000
   N    116.08000000    51.53000000    12.90000000
   C    114.95000000    52.30000000    12.40000000
   C    113.67000000    52.06000000    13.18000000
   O    113.71000000    51.75000000    14.36000000
   C    115.23000000    53.79000000    12.24000000
   C    116.24000000    53.99000000    11.12000000
   N    116.73000000    55.22000000    10.95000000
   O    116.74000000    53.05000000    10.51000000
   H    116.63000000    52.00000000    13.60000000
   H    114.79000000    51.83000000    11.42000000
   H    115.65000000    54.11000000    13.19000000
   H    114.32000000    54.33000000    11.98000000
   H    116.17000000    56.00000000    11.27000000
   H    117.45000000    55.35000000    10.25000000
   N    112.44000000    52.26000000    12.68000000
   C    112.10000000    52.78000000    11.38000000
   C    112.17000000    51.76000000    10.25000000
   O    112.73000000    50.68000000    10.42000000
   H    111.65000000    52.12000000    13.29000000
   H    112.71000000    53.65000000    11.12000000
   H    111.05000000    53.07000000    11.40000000
   N    111.68000000    52.24000000     9.11000000
   C    111.62000000    51.53000000     7.85000000
   C    111.96000000    52.48000000     6.71000000
   O    111.64000000    53.67000000     6.68000000
   C    110.24000000    50.88000000     7.80000000
   C    109.10000000    51.75000000     8.26000000
   C    108.68000000    51.74000000     9.59000000
   C    108.48000000    52.61000000     7.34000000
   C    107.62000000    52.59000000     9.93000000
   C    107.48000000    53.51000000     7.70000000
   C    107.00000000    53.49000000     9.03000000
   O    106.03000000    54.34000000     9.47000000
   H    111.16000000    53.10000000     9.20000000
   H    112.35000000    50.72000000     7.78000000
   H    110.35000000    50.01000000     8.45000000
   H    110.08000000    50.52000000     6.78000000
   H    109.15000000    51.10000000    10.33000000
   H    108.95000000    52.78000000     6.38000000
   H    107.14000000    52.43000000    10.88000000
   H    107.28000000    54.35000000     7.05000000
   H    105.62000000    54.82000000     8.75000000
   N    112.56000000    51.92000000     5.65000000
   C    112.91000000    52.46000000     4.35000000
   C    112.60000000    51.46000000     3.25000000
   O    113.17000000    51.71000000     2.20000000
   C    114.30000000    53.09000000     4.23000000
   C    114.15000000    54.49000000     4.83000000
   C    115.37000000    52.21000000     4.85000000
   C    115.27000000    55.43000000     4.40000000
   H    112.75000000    50.93000000     5.72000000
   H    112.20000000    53.27000000     4.17000000
   H    114.61000000    53.26000000     3.20000000
   H    114.26000000    54.44000000     5.91000000
   H    113.26000000    55.03000000     4.48000000
   H    116.32000000    52.74000000     4.73000000
   H    115.23000000    52.13000000     5.93000000
   H    115.35000000    51.25000000     4.33000000
   H    115.22000000    55.53000000     3.31000000
   H    115.07000000    56.36000000     4.92000000
   H    116.25000000    55.12000000     4.77000000
   N    111.81000000    50.40000000     3.50000000
   C    111.34000000    49.51000000     2.46000000
   C    112.40000000    48.43000000     2.25000000
   O    112.28000000    47.74000000     1.24000000
   C    109.96000000    48.89000000     2.61000000
   O    109.35000000    49.29000000     3.82000000
   H    111.57000000    50.21000000     4.46000000
   H    111.30000000    50.09000000     1.54000000
   H    110.06000000    47.80000000     2.54000000
   H    109.28000000    49.22000000     1.83000000
   H    109.71000000    48.81000000     4.56000000
   N    113.30000000    48.24000000     3.22000000
   C    114.38000000    47.28000000     3.24000000
   C    113.99000000    45.85000000     3.60000000
   O    114.75000000    45.12000000     4.22000000
   C    115.48000000    47.97000000     4.05000000
   H    113.02000000    48.71000000     4.07000000
   H    114.79000000    47.15000000     2.23000000
   H    115.12000000    48.44000000     4.96000000
   H    116.20000000    47.24000000     4.42000000
   H    115.96000000    48.76000000     3.47000000
   N    112.74000000    45.55000000     3.23000000
   C    111.88000000    44.44000000     3.58000000
   C    111.61000000    44.10000000     5.04000000
   O    111.79000000    42.96000000     5.48000000
   C    112.28000000    43.22000000     2.76000000
   H    112.23000000    46.25000000     2.71000000
   H    110.90000000    44.67000000     3.17000000
   H    112.36000000    43.69000000     1.78000000
   H    113.26000000    42.87000000     3.08000000
   H    111.57000000    42.39000000     2.80000000
   N    111.17000000    45.08000000     5.84000000
   C    111.10000000    45.06000000     7.28000000
   C    109.69000000    45.20000000     7.85000000
   O    109.47000000    45.18000000     9.06000000
   C    112.04000000    46.13000000     7.82000000
   C    111.62000000    47.59000000     7.70000000
   C    111.72000000    48.18000000     6.30000000
   O    110.96000000    47.72000000     5.42000000
   O    112.57000000    49.08000000     6.10000000
   H    111.05000000    45.99000000     5.41000000
   H    111.51000000    44.11000000     7.64000000
   H    113.00000000    45.94000000     7.34000000
   H    112.16000000    46.02000000     8.90000000
   H    112.40000000    48.14000000     8.23000000
   H    110.64000000    47.85000000     8.10000000
   N    108.68000000    45.40000000     7.00000000
   C    107.27000000    45.41000000     7.35000000
   H    106.68200000    45.07100000     6.49700000
   H    107.10000000    44.74400000     8.19600000
   H    106.96900000    46.42300000     7.61800000
   H    108.83000000    45.28000000     6.01000000
  Ca    112.01100000    46.38000000    13.33000000
   O    114.09100000    47.44000000    14.84000000
   H    115.03100000    47.34000000    14.93000000
   H    113.86100000    48.14000000    15.45000000
   O    110.98100000    48.75000000    13.98000000
   H    110.36100000    48.67000000    14.70000000
   H    110.94100000    49.68000000    13.73000000
   O    112.54100000    47.94000000    11.24000000
   H    112.29100000    48.85000000    11.08000000
   H    113.15100000    47.73000000    10.54000000
   O    110.93100000    45.12000000    11.35000000
   H    111.47100000    44.34000000    11.18000000
   H    110.35100000    45.17000000    10.58000000
   O    109.74100000    45.90000000    14.61000000
   H    109.16100000    45.22000000    14.95000000
   H    109.47100000    46.70000000    15.06000000

Ca 1.70



