%chk=loop1.cluster149.chk
%nprocshared=48
%mem=10GB
%nosave
#b3lyp/svp scf=(tight,noincore) Test 
#IOP(5/87=12) Density=Current Pop=(MK,readradii) iop(6/33=2) iop(6/42=6)

loop1.cluster149 

   0  1 
   C     41.46000000    -1.15000000    38.08000000
   C     40.88000000    -2.56000000    38.06000000
   O     41.10000000    -3.37000000    37.17000000
   H     42.42100000    -1.14600000    37.56500000
   H     40.77500000    -0.46800000    37.57700000
   H     41.60000000    -0.82900000    39.11200000
   N     40.19000000    -2.94000000    39.14000000
   C     39.58000000    -4.22000000    39.43000000
   C     38.08000000    -4.36000000    39.19000000
   O     37.44000000    -5.23000000    39.77000000
   C     40.02000000    -4.63000000    40.83000000
   C     39.39000000    -3.76000000    41.92000000
   O     38.84000000    -4.35000000    42.88000000
   O     39.55000000    -2.53000000    41.96000000
   H     40.06000000    -2.19000000    39.81000000
   H     39.98000000    -4.93000000    38.70000000
   H     41.10000000    -4.54000000    40.87000000
   H     39.72000000    -5.66000000    41.01000000
   N     37.51000000    -3.43000000    38.42000000
   C     36.07000000    -3.31000000    38.29000000
   C     35.50000000    -3.13000000    36.89000000
   O     35.30000000    -1.97000000    36.52000000
   C     35.53000000    -2.37000000    39.36000000
   C     35.62000000    -2.95000000    40.77000000
   C     35.06000000    -2.12000000    41.93000000
   C     35.51000000    -2.68000000    43.27000000
   N     36.89000000    -2.37000000    43.68000000
   H     38.09000000    -2.66000000    38.11000000
   H     35.59000000    -4.25000000    38.56000000
   H     34.47000000    -2.30000000    39.13000000
   H     35.92000000    -1.35000000    39.36000000
   H     36.66000000    -3.14000000    41.03000000
   H     35.07000000    -3.89000000    40.81000000
   H     33.98000000    -2.07000000    41.86000000
   H     35.43000000    -1.10000000    41.78000000
   H     35.36000000    -3.76000000    43.24000000
   H     34.91000000    -2.21000000    44.05000000
   H     37.00000000    -2.58000000    44.67000000
   H     37.63000000    -2.69000000    43.07000000
   H     36.98000000    -1.37000000    43.75000000
   N     35.00000000    -4.11000000    36.13000000
   C     35.01000000    -5.54000000    36.34000000
   C     34.11000000    -6.05000000    37.46000000
   O     33.65000000    -5.27000000    38.29000000
   C     36.44000000    -6.06000000    36.40000000
   C     37.38000000    -5.59000000    35.29000000
   O     36.95000000    -5.33000000    34.15000000
   O     38.59000000    -5.78000000    35.48000000
   H     34.68000000    -3.72000000    35.25000000
   H     34.64000000    -6.02000000    35.44000000
   H     36.39000000    -7.14000000    36.24000000
   H     36.87000000    -5.82000000    37.37000000
   N     33.94000000    -7.36000000    37.69000000
   C     34.21000000    -8.52000000    36.88000000
   C     34.68000000    -9.69000000    37.73000000
   O     33.96000000   -10.05000000    38.66000000
   H     33.49000000    -7.63000000    38.56000000
   H     34.76000000    -8.34000000    35.95000000
   H     33.24000000    -8.88000000    36.55000000
   N     35.78000000   -10.36000000    37.37000000
   C     36.91000000    -9.91000000    36.59000000
   C     37.96000000    -9.15000000    37.38000000
   O     38.92000000    -8.62000000    36.83000000
   C     37.64000000   -11.12000000    36.01000000
   C     38.03000000   -12.12000000    37.09000000
   O     37.28000000   -13.08000000    37.37000000
   O     39.16000000   -11.97000000    37.62000000
   H     35.88000000   -11.17000000    37.96000000
   H     36.48000000    -9.34000000    35.77000000
   H     38.56000000   -10.85000000    35.49000000
   H     36.97000000   -11.58000000    35.28000000
   N     37.78000000    -9.12000000    38.71000000
   C     38.59000000    -8.35000000    39.63000000
   C     40.05000000    -8.72000000    39.85000000
   O     40.75000000    -8.16000000    40.68000000
   H     37.03000000    -9.68000000    39.10000000
   H     38.05000000    -8.39000000    40.58000000
   H     38.56000000    -7.31000000    39.31000000
   N     40.62000000    -9.59000000    39.01000000
   C     42.03000000    -9.80000000    38.73000000
   C     42.70000000    -8.68000000    37.94000000
   O     41.96000000    -8.09000000    37.16000000
   C     42.17000000   -11.13000000    37.98000000
   C     43.63000000   -11.56000000    37.85000000
   O     41.56000000   -11.03000000    36.71000000
   H     40.03000000   -10.00000000    38.30000000
   H     42.55000000    -9.88000000    39.68000000
   H     41.66000000   -11.90000000    38.56000000
   H     40.68000000   -11.34000000    36.92000000
   H     43.70000000   -12.53000000    37.37000000
   H     44.09000000   -10.82000000    37.19000000
   H     44.18000000   -11.66000000    38.79000000
   N     43.97000000    -8.37000000    38.22000000
   C     44.73000000    -7.36000000    37.51000000
   C     46.14000000    -7.78000000    37.12000000
   O     46.96000000    -7.98000000    38.00000000
   C     44.54000000    -6.01000000    38.20000000
   C     45.09000000    -4.88000000    37.33000000
   C     45.18000000    -5.89000000    39.58000000
   C     44.71000000    -3.47000000    37.79000000
   H     44.35000000    -8.82000000    39.04000000
   H     44.12000000    -7.26000000    36.61000000
   H     43.46000000    -5.91000000    38.30000000
   H     44.71000000    -4.97000000    36.32000000
   H     46.18000000    -4.95000000    37.36000000
   H     45.08000000    -4.90000000    40.02000000
   H     44.68000000    -6.52000000    40.32000000
   H     46.25000000    -6.11000000    39.55000000
   H     45.17000000    -3.11000000    38.70000000
   H     45.08000000    -2.83000000    36.99000000
   H     43.62000000    -3.38000000    37.81000000
   N     46.34000000    -8.11000000    35.84000000
   C     47.59000000    -8.47000000    35.19000000
   C     47.81000000    -7.84000000    33.83000000
   O     48.82000000    -8.07000000    33.17000000
   C     47.76000000    -9.99000000    35.17000000
   C     46.79000000   -10.69000000    34.22000000
   O     47.68000000   -10.52000000    36.48000000
   H     45.52000000    -8.17000000    35.25000000
   H     48.41000000    -8.07000000    35.79000000
   H     48.76000000   -10.00000000    34.74000000
   H     48.07000000    -9.89000000    37.10000000
   H     46.79000000   -10.00000000    33.38000000
   H     47.24000000   -11.66000000    34.05000000
   H     45.77000000   -10.77000000    34.62000000
   N     46.95000000    -6.90000000    33.42000000
   C     46.82000000    -6.37000000    32.08000000
   C     46.50000000    -7.43000000    31.03000000
   O     46.18000000    -8.60000000    31.25000000
   C     47.99000000    -5.46000000    31.74000000
   C     48.52000000    -4.55000000    32.85000000
   O     47.72000000    -4.50000000    30.74000000
   H     46.25000000    -6.61000000    34.09000000
   H     45.93000000    -5.74000000    32.01000000
   H     48.75000000    -6.13000000    31.34000000
   H     48.46000000    -3.89000000    30.72000000
   H     49.21000000    -5.12000000    33.47000000
   H     49.14000000    -3.79000000    32.39000000
   H     47.70000000    -4.15000000    33.45000000
   N     46.61000000    -7.06000000    29.76000000
   C     46.54000000    -8.02000000    28.67000000
   C     45.30000000    -8.11000000    27.80000000
   O     45.30000000    -9.06000000    27.02000000
   C     47.76000000    -7.69000000    27.83000000
   C     49.13000000    -7.78000000    28.50000000
   C     50.26000000    -7.76000000    27.47000000
   C     51.58000000    -8.03000000    28.20000000
   N     52.75000000    -7.86000000    27.33000000
   H     46.70000000    -6.08000000    29.54000000
   H     46.79000000    -9.02000000    29.04000000
   H     47.57000000    -6.77000000    27.28000000
   H     47.84000000    -8.44000000    27.03000000
   H     49.24000000    -8.70000000    29.07000000
   H     49.30000000    -6.90000000    29.12000000
   H     50.23000000    -6.81000000    26.93000000
   H     50.10000000    -8.62000000    26.83000000
   H     51.54000000    -9.05000000    28.60000000
   H     51.62000000    -7.41000000    29.10000000
   H     53.52000000    -8.34000000    27.76000000
   H     52.66000000    -8.32000000    26.43000000
   H     53.02000000    -6.89000000    27.30000000
   N     44.21000000    -7.34000000    27.88000000
   C     43.75000000    -6.26000000    28.74000000
   C     44.65000000    -5.04000000    28.83000000
   O     44.84000000    -4.36000000    29.84000000
   C     43.11000000    -6.87000000    29.98000000
   C     42.02000000    -6.00000000    30.62000000
   C     41.23000000    -6.64000000    31.75000000
   O     39.99000000    -6.82000000    31.73000000
   O     41.88000000    -6.92000000    32.78000000
   H     43.62000000    -7.56000000    27.09000000
   H     42.89000000    -5.81000000    28.25000000
   H     43.81000000    -7.28000000    30.70000000
   H     42.61000000    -7.79000000    29.67000000
   H     41.32000000    -5.67000000    29.85000000
   H     42.51000000    -5.10000000    30.99000000
   N     45.14000000    -4.77000000    27.62000000
   C     45.67000000    -3.49000000    27.19000000
   H     46.65400000    -3.63600000    26.74400000
   H     45.00000000    -3.04800000    26.45300000
   H     45.75600000    -2.82500000    28.04900000
   H     44.76000000    -5.35000000    26.89000000
  Ca     40.38000000    -7.57000000    34.87000000
   O     38.21000000    -8.54000000    33.57000000
   H     38.01000000    -8.05000000    32.77000000
   H     37.95000000    -9.44000000    33.37000000
   O     40.82000000   -10.01000000    34.14000000
   H     40.82000000   -10.61000000    33.39000000
   H     41.22000000   -10.52000000    34.85000000
   O     41.72000000    -5.45000000    35.59000000
   H     41.58000000    -4.92000000    36.38000000
   H     42.36000000    -4.96000000    35.08000000

Ca 1.70



