%chk=loop3.cluster5.chk
%nprocshared=48
%mem=10GB
%nosave
#b3lyp/svp scf=(tight,noincore) Test 
#IOP(5/87=12) Density=Current Pop=(MK,readradii) iop(6/33=2) iop(6/42=6)

loop3.cluster5 

   0  1 
   C     75.07000000    49.14000000    91.61000000
   C     76.15000000    49.91000000    90.86000000
   O     76.71000000    49.46000000    89.86000000
   H     74.16200000    49.10900000    91.00800000
   H     75.41400000    48.12300000    91.80100000
   H     74.86000000    49.63700000    92.55700000
   N     76.53000000    51.07000000    91.40000000
   C     77.65000000    51.81000000    90.87000000
   C     78.99000000    51.19000000    91.22000000
   O     79.17000000    50.88000000    92.40000000
   C     77.67000000    53.30000000    91.21000000
   C     78.44000000    54.12000000    90.18000000
   O     79.67000000    54.07000000    90.00000000
   O     77.81000000    54.80000000    89.35000000
   H     76.15000000    51.35000000    92.29000000
   H     77.58000000    51.81000000    89.78000000
   H     78.00000000    53.48000000    92.24000000
   H     76.66000000    53.70000000    91.17000000
   N     79.90000000    50.97000000    90.27000000
   C     81.14000000    50.29000000    90.57000000
   C     82.40000000    51.14000000    90.56000000
   O     83.49000000    50.71000000    90.93000000
   C     81.30000000    49.05000000    89.68000000
   C     80.13000000    48.08000000    89.83000000
   C     79.73000000    47.69000000    91.25000000
   C     79.06000000    46.32000000    91.35000000
   N     78.40000000    46.08000000    92.64000000
   H     79.80000000    51.57000000    89.46000000
   H     81.08000000    49.86000000    91.57000000
   H     82.23000000    48.53000000    89.87000000
   H     81.36000000    49.26000000    88.62000000
   H     80.29000000    47.24000000    89.15000000
   H     79.26000000    48.57000000    89.40000000
   H     79.01000000    48.47000000    91.49000000
   H     80.59000000    47.53000000    91.91000000
   H     79.88000000    45.61000000    91.23000000
   H     78.35000000    46.23000000    90.53000000
   H     77.80000000    45.27000000    92.58000000
   H     79.05000000    45.80000000    93.36000000
   H     77.84000000    46.90000000    92.81000000
   N     82.26000000    52.42000000    90.21000000
   C     83.32000000    53.39000000    90.38000000
   C     83.00000000    54.29000000    91.57000000
   O     83.90000000    54.84000000    92.20000000
   C     83.65000000    54.16000000    89.11000000
   C     82.36000000    54.59000000    88.42000000
   O     81.70000000    55.59000000    88.77000000
   O     81.91000000    53.91000000    87.46000000
   H     81.34000000    52.75000000    89.96000000
   H     84.19000000    52.83000000    90.71000000
   H     84.13000000    53.48000000    88.40000000
   H     84.24000000    55.04000000    89.37000000
   N     81.72000000    54.50000000    91.88000000
   C     81.24000000    55.13000000    93.09000000
   C     80.40000000    56.38000000    92.82000000
   O     79.95000000    57.00000000    93.78000000
   H     81.03000000    54.16000000    91.22000000
   H     82.12000000    55.47000000    93.63000000
   H     80.60000000    54.53000000    93.73000000
   N     80.21000000    56.85000000    91.59000000
   C     79.63000000    58.15000000    91.31000000
   C     78.11000000    58.16000000    91.19000000
   O     77.58000000    59.26000000    91.04000000
   C     80.27000000    58.86000000    90.12000000
   C     79.94000000    58.39000000    88.71000000
   N     80.34000000    59.21000000    87.73000000
   O     79.32000000    57.36000000    88.46000000
   H     80.59000000    56.35000000    90.80000000
   H     79.91000000    58.91000000    92.05000000
   H     81.35000000    58.81000000    90.26000000
   H     79.98000000    59.90000000    90.20000000
   H     81.00000000    59.94000000    87.97000000
   H     80.19000000    58.99000000    86.76000000
   N     77.43000000    57.02000000    91.21000000
   C     75.98000000    56.89000000    91.19000000
   C     75.28000000    57.08000000    89.85000000
   O     74.05000000    57.13000000    89.85000000
   H     78.03000000    56.21000000    91.24000000
   H     75.57000000    57.54000000    91.96000000
   H     75.68000000    55.89000000    91.48000000
   N     76.00000000    57.24000000    88.74000000
   C     75.47000000    57.22000000    87.39000000
   C     75.94000000    55.87000000    86.86000000
   O     77.11000000    55.52000000    86.93000000
   C     76.00000000    58.42000000    86.62000000
   C     75.82000000    59.76000000    87.31000000
   C     76.92000000    60.47000000    87.81000000
   C     74.55000000    60.28000000    87.56000000
   C     76.80000000    61.73000000    88.39000000
   C     74.41000000    61.48000000    88.26000000
   C     75.52000000    62.29000000    88.59000000
   O     75.31000000    63.56000000    89.06000000
   H     76.99000000    57.38000000    88.87000000
   H     74.38000000    57.19000000    87.38000000
   H     75.52000000    58.41000000    85.64000000
   H     77.04000000    58.16000000    86.48000000
   H     77.90000000    60.06000000    87.60000000
   H     73.71000000    59.68000000    87.23000000
   H     77.66000000    62.27000000    88.75000000
   H     73.43000000    61.86000000    88.49000000
   H     74.45000000    63.95000000    88.90000000
   N     75.06000000    55.12000000    86.19000000
   C     75.26000000    53.76000000    85.73000000
   C     75.59000000    53.72000000    84.25000000
   O     74.84000000    54.19000000    83.39000000
   C     74.09000000    52.89000000    86.15000000
   C     73.81000000    52.88000000    87.65000000
   C     74.27000000    51.49000000    85.57000000
   C     74.80000000    52.22000000    88.61000000
   H     74.09000000    55.42000000    86.13000000
   H     76.10000000    53.32000000    86.28000000
   H     73.26000000    53.32000000    85.57000000
   H     72.85000000    52.39000000    87.81000000
   H     73.85000000    53.91000000    88.01000000
   H     73.48000000    50.82000000    85.93000000
   H     74.15000000    51.51000000    84.48000000
   H     75.14000000    50.95000000    85.92000000
   H     75.78000000    52.61000000    88.33000000
   H     74.58000000    52.42000000    89.66000000
   H     74.95000000    51.21000000    88.24000000
   N     76.71000000    53.06000000    83.93000000
   C     77.13000000    52.79000000    82.57000000
   C     76.44000000    51.57000000    81.99000000
   O     76.06000000    50.62000000    82.68000000
   C     78.65000000    52.70000000    82.40000000
   O     79.24000000    51.80000000    83.31000000
   H     77.34000000    52.74000000    84.65000000
   H     76.86000000    53.68000000    81.99000000
   H     79.05000000    53.68000000    82.62000000
   H     78.96000000    52.39000000    81.40000000
   H     79.26000000    52.27000000    84.15000000
   N     76.44000000    51.39000000    80.67000000
   C     76.16000000    50.16000000    79.96000000
   C     76.79000000    48.89000000    80.50000000
   O     76.15000000    47.86000000    80.74000000
   C     76.41000000    50.44000000    78.48000000
   H     76.58000000    52.22000000    80.11000000
   H     75.09000000    50.04000000    80.14000000
   H     76.15000000    51.49000000    78.43000000
   H     77.44000000    50.20000000    78.22000000
   H     75.73000000    49.83000000    77.88000000
   N     78.03000000    48.98000000    81.00000000
   C     78.76000000    47.94000000    81.70000000
   C     78.20000000    47.68000000    83.09000000
   O     78.03000000    46.54000000    83.53000000
   C     80.24000000    48.29000000    81.75000000
   H     78.35000000    49.93000000    80.99000000
   H     78.75000000    47.02000000    81.12000000
   H     80.42000000    49.23000000    82.27000000
   H     80.75000000    47.62000000    82.43000000
   H     80.75000000    48.21000000    80.79000000
   N     77.97000000    48.75000000    83.86000000
   C     77.41000000    48.71000000    85.20000000
   C     76.01000000    48.12000000    85.22000000
   O     75.62000000    47.42000000    86.15000000
   C     77.61000000    50.07000000    85.86000000
   C     79.02000000    50.38000000    86.35000000
   C     79.13000000    51.87000000    86.63000000
   O     78.97000000    52.36000000    87.77000000
   O     79.32000000    52.69000000    85.71000000
   H     78.09000000    49.68000000    83.48000000
   H     77.93000000    47.95000000    85.78000000
   H     76.98000000    50.06000000    86.75000000
   H     77.24000000    50.85000000    85.19000000
   H     79.72000000    49.96000000    85.62000000
   H     79.22000000    49.78000000    87.24000000
   N     75.25000000    48.40000000    84.15000000
   C     74.01000000    47.72000000    83.85000000
   H     73.25300000    48.45300000    83.57200000
   H     74.16600000    47.02700000    83.02300000
   H     73.67600000    47.16800000    84.72900000
   H     75.68000000    49.04000000    83.50000000
  Ca     79.52000000    54.84000000    87.41000000
   O     79.36000000    55.96000000    84.80000000
   H     80.13000000    55.58000000    84.37000000
   H     79.38000000    56.89000000    84.55000000

Ca 1.70



