%chk=loop3.cluster66.chk
%nprocshared=48
%mem=10GB
%nosave
#b3lyp/svp scf=(tight,noincore) Test 
#IOP(5/87=12) Density=Current Pop=(MK,readradii) iop(6/33=2) iop(6/42=6)

loop3.cluster66 

   0  1 
   C    112.59000000    50.03000000    15.71000000
   C    113.89000000    49.89000000    14.92000000
   O    114.14000000    48.89000000    14.26000000
   H    111.78700000    49.51900000    15.18000000
   H    112.71400000    49.58500000    16.69700000
   H    112.34000000    51.08600000    15.81600000
   N    114.79000000    50.87000000    14.95000000
   C    115.92000000    51.05000000    14.06000000
   C    117.03000000    50.02000000    14.22000000
   O    116.95000000    49.11000000    15.04000000
   C    116.33000000    52.52000000    13.97000000
   C    116.66000000    53.27000000    15.25000000
   O    115.67000000    53.68000000    15.89000000
   O    117.87000000    53.38000000    15.53000000
   H    114.74000000    51.51000000    15.73000000
   H    115.51000000    50.80000000    13.08000000
   H    115.48000000    53.05000000    13.56000000
   H    117.13000000    52.69000000    13.25000000
   N    118.16000000    50.20000000    13.54000000
   C    119.30000000    49.31000000    13.68000000
   C    119.77000000    48.69000000    12.38000000
   O    120.27000000    49.45000000    11.55000000
   C    120.37000000    50.02000000    14.49000000
   C    121.41000000    49.03000000    14.99000000
   C    122.17000000    49.68000000    16.14000000
   C    122.90000000    50.98000000    15.81000000
   N    123.94000000    51.20000000    16.83000000
   H    118.16000000    50.93000000    12.84000000
   H    119.05000000    48.43000000    14.29000000
   H    119.90000000    50.60000000    15.29000000
   H    120.93000000    50.68000000    13.82000000
   H    122.16000000    48.74000000    14.25000000
   H    120.87000000    48.13000000    15.28000000
   H    122.95000000    48.96000000    16.38000000
   H    121.50000000    49.76000000    17.00000000
   H    122.15000000    51.76000000    15.96000000
   H    123.21000000    51.02000000    14.76000000
   H    123.94000000    52.19000000    17.02000000
   H    123.79000000    50.75000000    17.72000000
   H    124.84000000    50.96000000    16.43000000
   N    119.72000000    47.37000000    12.18000000
   C    120.19000000    46.74000000    10.97000000
   C    119.25000000    47.04000000     9.81000000
   O    119.57000000    46.97000000     8.63000000
   C    120.52000000    45.26000000    11.14000000
   C    119.39000000    44.37000000    11.66000000
   O    119.60000000    43.62000000    12.64000000
   O    118.27000000    44.53000000    11.13000000
   H    119.47000000    46.77000000    12.95000000
   H    121.14000000    47.11000000    10.58000000
   H    121.43000000    45.30000000    11.73000000
   H    120.82000000    44.85000000    10.17000000
   N    118.03000000    47.45000000    10.20000000
   C    117.04000000    47.87000000     9.23000000
   C    115.83000000    48.65000000     9.75000000
   O    115.32000000    48.27000000    10.80000000
   H    117.84000000    47.25000000    11.17000000
   H    116.77000000    47.03000000     8.60000000
   H    117.63000000    48.58000000     8.65000000
   N    115.39000000    49.70000000     9.05000000
   C    115.68000000    49.93000000     7.65000000
   C    114.34000000    50.20000000     6.99000000
   O    113.59000000    51.08000000     7.40000000
   C    116.68000000    51.09000000     7.54000000
   C    117.38000000    51.26000000     6.20000000
   N    118.28000000    52.22000000     5.99000000
   O    117.24000000    50.43000000     5.30000000
   H    114.66000000    50.26000000     9.46000000
   H    116.12000000    49.03000000     7.23000000
   H    117.53000000    50.88000000     8.18000000
   H    116.23000000    52.00000000     7.93000000
   H    118.45000000    52.97000000     6.65000000
   H    118.78000000    52.05000000     5.13000000
   N    113.95000000    49.57000000     5.88000000
   C    114.53000000    48.52000000     5.06000000
   C    114.53000000    47.18000000     5.79000000
   O    114.24000000    47.08000000     6.98000000
   H    113.15000000    50.00000000     5.43000000
   H    115.55000000    48.83000000     4.84000000
   H    113.95000000    48.39000000     4.15000000
   N    114.70000000    46.09000000     5.04000000
   C    114.40000000    44.74000000     5.47000000
   C    115.48000000    43.73000000     5.07000000
   O    116.18000000    43.92000000     4.07000000
   C    113.04000000    44.37000000     4.87000000
   C    111.83000000    45.11000000     5.38000000
   C    111.26000000    44.72000000     6.60000000
   C    111.28000000    46.13000000     4.60000000
   C    110.21000000    45.50000000     7.11000000
   C    110.15000000    46.82000000     5.05000000
   C    109.65000000    46.53000000     6.33000000
   O    108.58000000    47.24000000     6.81000000
   H    114.89000000    46.28000000     4.07000000
   H    114.29000000    44.69000000     6.55000000
   H    112.95000000    43.32000000     5.15000000
   H    113.09000000    44.54000000     3.80000000
   H    111.63000000    43.94000000     7.26000000
   H    111.79000000    46.48000000     3.71000000
   H    109.82000000    45.27000000     8.09000000
   H    109.72000000    47.58000000     4.42000000
   H    108.30000000    47.80000000     6.08000000
   N    115.55000000    42.57000000     5.73000000
   C    116.24000000    41.39000000     5.27000000
   C    115.46000000    40.13000000     5.62000000
   O    115.88000000    39.04000000     5.22000000
   C    117.64000000    41.31000000     5.88000000
   C    117.73000000    41.18000000     7.40000000
   C    118.49000000    40.44000000     4.97000000
   C    117.61000000    39.74000000     7.90000000
   H    114.85000000    42.46000000     6.44000000
   H    116.33000000    41.39000000     4.18000000
   H    118.06000000    42.28000000     5.63000000
   H    117.04000000    41.85000000     7.91000000
   H    118.71000000    41.50000000     7.75000000
   H    118.48000000    39.38000000     5.25000000
   H    118.29000000    40.45000000     3.89000000
   H    119.52000000    40.76000000     5.15000000
   H    118.31000000    39.03000000     7.46000000
   H    117.71000000    39.81000000     8.98000000
   H    116.58000000    39.44000000     7.71000000
   N    114.36000000    40.23000000     6.37000000
   C    113.25000000    39.30000000     6.45000000
   C    113.35000000    38.34000000     7.63000000
   O    112.39000000    38.09000000     8.35000000
   C    111.90000000    40.01000000     6.41000000
   O    111.79000000    41.06000000     5.47000000
   H    114.18000000    41.11000000     6.84000000
   H    113.22000000    38.73000000     5.53000000
   H    111.68000000    40.43000000     7.39000000
   H    111.10000000    39.32000000     6.15000000
   H    110.89000000    41.36000000     5.60000000
   N    114.49000000    37.68000000     7.82000000
   C    114.86000000    36.85000000     8.95000000
   C    114.36000000    37.34000000    10.30000000
   O    114.94000000    38.19000000    10.96000000
   C    116.37000000    36.70000000     9.08000000
   H    115.29000000    37.91000000     7.24000000
   H    114.29000000    35.94000000     8.78000000
   H    116.80000000    37.68000000     9.31000000
   H    116.67000000    35.86000000     9.72000000
   H    116.87000000    36.42000000     8.16000000
   N    113.20000000    36.79000000    10.67000000
   C    112.58000000    37.07000000    11.95000000
   C    112.22000000    38.51000000    12.28000000
   O    111.98000000    38.92000000    13.42000000
   C    113.33000000    36.28000000    13.02000000
   H    112.70000000    36.28000000     9.96000000
   H    111.60000000    36.59000000    11.90000000
   H    113.69000000    35.42000000    12.46000000
   H    114.12000000    36.93000000    13.38000000
   H    112.67000000    36.00000000    13.84000000
   N    112.15000000    39.30000000    11.21000000
   C    111.99000000    40.73000000    11.41000000
   C    110.64000000    41.20000000    11.94000000
   O    110.57000000    42.18000000    12.69000000
   C    112.35000000    41.46000000    10.12000000
   C    113.76000000    41.10000000     9.67000000
   C    114.18000000    42.34000000     8.90000000
   O    113.74000000    42.53000000     7.74000000
   O    115.03000000    43.05000000     9.47000000
   H    112.30000000    39.01000000    10.26000000
   H    112.75000000    41.03000000    12.13000000
   H    112.24000000    42.50000000    10.44000000
   H    111.59000000    41.29000000     9.36000000
   H    113.81000000    40.12000000     9.20000000
   H    114.37000000    41.03000000    10.58000000
   N    109.58000000    40.50000000    11.53000000
   C    108.21000000    40.73000000    11.94000000
   H    107.55600000    40.02000000    11.43400000
   H    108.12600000    40.59700000    13.01900000
   H    107.91600000    41.74600000    11.67500000
   H    109.86000000    39.62000000    11.12000000
  Ca    113.98700000    46.41000000    12.05000000
   O    113.47700000    45.19000000     9.65000000
   H    113.22700000    45.43000000     8.75000000
   H    114.14700000    44.51000000     9.53000000
   O    111.67700000    46.27000000    13.25000000
   H    111.38700000    45.67000000    13.94000000
   H    110.90700000    46.39000000    12.70000000
   O    114.34700000    45.60000000    14.46000000
   H    113.96700000    44.96000000    15.06000000
   H    114.81700000    46.21000000    15.03000000
   O    111.72700000    47.88000000    10.79000000
   H    111.10700000    48.50000000    11.16000000
   H    111.44700000    47.77000000     9.88000000
   O    115.75700000    44.50000000    11.35000000
   H    116.71700000    44.50000000    11.30000000
   H    115.48700000    43.90000000    10.66000000
   O    113.01700000    44.00000000    12.41000000
   H    113.49700000    43.34000000    12.92000000
   H    112.34700000    43.50000000    11.95000000
   O    116.51700000    46.91000000    13.08000000
   H    116.70700000    47.67000000    13.64000000
   H    117.07700000    46.22000000    13.43000000

Ca 1.70



