%chk=loop1.cluster142.chk
%nprocshared=48
%mem=10GB
%nosave
#b3lyp/svp scf=(tight,noincore) Test 
#IOP(5/87=12) Density=Current Pop=(MK,readradii) iop(6/33=2) iop(6/42=6)

loop1.cluster142 

   0  1 
   C     47.40000000    39.06000000     5.51000000
   C     47.51000000    38.76000000     4.02000000
   O     48.21000000    39.45000000     3.27000000
   H     46.35200000    39.19700000     5.77600000
   H     47.81300000    38.22800000     6.08000000
   H     47.95400000    39.97000000     5.74000000
   N     46.95000000    37.63000000     3.59000000
   C     46.95000000    37.16000000     2.21000000
   C     46.26000000    38.11000000     1.24000000
   O     45.04000000    38.18000000     1.16000000
   C     46.42000000    35.74000000     2.07000000
   C     45.13000000    35.39000000     2.79000000
   O     44.20000000    34.79000000     2.21000000
   O     45.08000000    35.69000000     4.01000000
   H     46.46000000    37.06000000     4.26000000
   H     47.97000000    37.06000000     1.83000000
   H     47.16000000    35.11000000     2.58000000
   H     46.31000000    35.44000000     1.03000000
   N     47.10000000    38.88000000     0.54000000
   C     46.75000000    39.92000000    -0.41000000
   C     47.66000000    40.13000000    -1.61000000
   O     48.18000000    41.24000000    -1.75000000
   C     46.61000000    41.22000000     0.37000000
   C     45.62000000    41.37000000     1.52000000
   C     44.15000000    41.25000000     1.14000000
   C     43.32000000    41.43000000     2.40000000
   N     41.87000000    41.43000000     2.13000000
   H     48.09000000    38.69000000     0.58000000
   H     45.78000000    39.70000000    -0.88000000
   H     46.29000000    41.90000000    -0.41000000
   H     47.61000000    41.45000000     0.75000000
   H     45.76000000    42.35000000     1.96000000
   H     45.91000000    40.71000000     2.35000000
   H     43.89000000    40.35000000     0.58000000
   H     43.99000000    42.03000000     0.40000000
   H     43.54000000    42.39000000     2.88000000
   H     43.61000000    40.60000000     3.03000000
   H     41.68000000    42.35000000     1.76000000
   H     41.63000000    40.62000000     1.58000000
   H     41.29000000    41.43000000     2.96000000
   N     47.79000000    39.26000000    -2.62000000
   C     47.81000000    37.82000000    -2.68000000
   C     46.84000000    37.02000000    -1.82000000
   O     47.25000000    36.27000000    -0.93000000
   C     49.25000000    37.31000000    -2.59000000
   C     50.13000000    37.79000000    -1.44000000
   O     51.31000000    38.06000000    -1.74000000
   O     49.73000000    38.26000000    -0.36000000
   H     48.04000000    39.71000000    -3.49000000
   H     47.52000000    37.54000000    -3.69000000
   H     49.63000000    37.67000000    -3.54000000
   H     49.38000000    36.23000000    -2.62000000
   N     45.53000000    37.23000000    -1.96000000
   C     44.85000000    37.97000000    -3.00000000
   C     43.43000000    37.54000000    -3.34000000
   O     42.57000000    38.42000000    -3.25000000
   H     44.95000000    36.70000000    -1.32000000
   H     45.42000000    37.88000000    -3.93000000
   H     44.96000000    39.04000000    -2.85000000
   N     43.12000000    36.33000000    -3.81000000
   C     43.97000000    35.20000000    -4.06000000
   C     43.91000000    34.20000000    -2.91000000
   O     42.82000000    33.78000000    -2.53000000
   C     43.53000000    34.56000000    -5.38000000
   C     44.42000000    33.38000000    -5.73000000
   O     45.65000000    33.60000000    -5.81000000
   O     44.05000000    32.19000000    -5.65000000
   H     42.15000000    36.29000000    -4.10000000
   H     45.01000000    35.53000000    -4.10000000
   H     43.59000000    35.21000000    -6.25000000
   H     42.48000000    34.29000000    -5.24000000
   N     45.05000000    33.75000000    -2.41000000
   C     45.14000000    32.81000000    -1.31000000
   C     46.45000000    32.47000000    -0.60000000
   O     46.46000000    31.41000000     0.01000000
   H     45.82000000    33.90000000    -3.04000000
   H     44.49000000    31.96000000    -1.51000000
   H     44.51000000    33.23000000    -0.53000000
   N     47.54000000    33.23000000    -0.74000000
   C     48.83000000    32.87000000    -0.19000000
   C     49.58000000    34.07000000     0.36000000
   O     50.07000000    34.90000000    -0.41000000
   C     49.62000000    32.12000000    -1.27000000
   C     49.01000000    30.82000000    -1.79000000
   O     50.88000000    31.86000000    -0.70000000
   H     47.56000000    34.15000000    -1.15000000
   H     48.76000000    32.20000000     0.67000000
   H     49.76000000    32.78000000    -2.12000000
   H     51.37000000    31.28000000    -1.30000000
   H     49.58000000    30.39000000    -2.61000000
   H     49.08000000    29.94000000    -1.14000000
   H     48.02000000    30.92000000    -2.24000000
   N     49.69000000    34.28000000     1.68000000
   C     50.53000000    35.28000000     2.30000000
   C     51.90000000    35.51000000     1.66000000
   O     52.33000000    36.63000000     1.40000000
   C     50.68000000    34.94000000     3.78000000
   C     51.47000000    35.91000000     4.65000000
   C     51.28000000    33.56000000     3.99000000
   C     50.79000000    37.27000000     4.76000000
   H     49.08000000    33.78000000     2.31000000
   H     50.03000000    36.25000000     2.31000000
   H     49.66000000    34.92000000     4.16000000
   H     52.40000000    36.21000000     4.16000000
   H     51.76000000    35.50000000     5.62000000
   H     52.34000000    33.43000000     3.77000000
   H     51.16000000    33.21000000     5.01000000
   H     50.79000000    32.87000000     3.30000000
   H     51.36000000    37.73000000     5.56000000
   H     50.90000000    37.85000000     3.85000000
   H     49.76000000    37.06000000     5.05000000
   N     52.52000000    34.35000000     1.44000000
   C     53.86000000    34.06000000     0.97000000
   C     55.04000000    34.69000000     1.69000000
   O     55.95000000    33.90000000     1.92000000
   C     53.98000000    33.95000000    -0.55000000
   C     54.97000000    32.84000000    -0.89000000
   O     54.54000000    35.10000000    -1.15000000
   H     51.96000000    33.57000000     1.76000000
   H     53.89000000    33.03000000     1.34000000
   H     52.95000000    33.75000000    -0.86000000
   H     53.97000000    35.27000000    -1.91000000
   H     55.94000000    33.08000000    -0.47000000
   H     54.65000000    31.92000000    -0.40000000
   H     54.99000000    32.66000000    -1.97000000
   N     54.95000000    35.90000000     2.25000000
   C     55.85000000    36.50000000     3.22000000
   C     57.29000000    36.71000000     2.77000000
   O     57.75000000    36.22000000     1.74000000
   C     55.75000000    35.69000000     4.51000000
   C     55.81000000    36.49000000     5.81000000
   O     56.76000000    34.70000000     4.57000000
   H     54.13000000    36.42000000     1.98000000
   H     55.49000000    37.50000000     3.46000000
   H     54.78000000    35.20000000     4.57000000
   H     56.62000000    34.19000000     3.77000000
   H     55.76000000    35.80000000     6.65000000
   H     56.78000000    36.98000000     5.89000000
   H     55.05000000    37.26000000     5.92000000
   N     57.99000000    37.55000000     3.53000000
   C     59.39000000    37.76000000     3.23000000
   C     59.81000000    39.08000000     2.59000000
   O     60.68000000    39.05000000     1.73000000
   C     60.27000000    37.59000000     4.47000000
   C     59.98000000    36.34000000     5.29000000
   C     60.39000000    35.08000000     4.52000000
   C     60.41000000    33.87000000     5.45000000
   N     60.57000000    32.60000000     4.74000000
   H     57.54000000    37.96000000     4.33000000
   H     59.71000000    37.00000000     2.51000000
   H     59.91000000    38.43000000     5.06000000
   H     61.30000000    37.84000000     4.20000000
   H     58.91000000    36.26000000     5.48000000
   H     60.58000000    36.49000000     6.18000000
   H     61.36000000    35.24000000     4.05000000
   H     59.72000000    34.82000000     3.70000000
   H     59.51000000    33.81000000     6.06000000
   H     61.22000000    33.98000000     6.18000000
   H     59.85000000    32.34000000     4.07000000
   H     61.42000000    32.63000000     4.20000000
   H     60.70000000    31.85000000     5.40000000
   N     59.23000000    40.27000000     2.78000000
   C     57.99000000    40.66000000     3.41000000
   C     57.83000000    40.35000000     4.90000000
   O     56.94000000    39.58000000     5.24000000
   C     56.78000000    40.38000000     2.53000000
   C     55.56000000    41.24000000     2.82000000
   C     54.26000000    40.77000000     2.17000000
   O     53.75000000    39.64000000     2.31000000
   O     53.65000000    41.58000000     1.44000000
   H     59.69000000    41.03000000     2.30000000
   H     58.11000000    41.74000000     3.44000000
   H     56.34000000    39.38000000     2.62000000
   H     57.01000000    40.59000000     1.49000000
   H     55.78000000    42.23000000     2.43000000
   H     55.28000000    41.21000000     3.88000000
   N     58.65000000    40.85000000     5.82000000
   C     58.50000000    40.89000000     7.26000000
   H     57.44300000    40.82500000     7.51700000
   H     59.03400000    40.05000000     7.70500000
   H     58.90900000    41.82500000     7.64300000
   H     59.43000000    41.31000000     5.37000000
  Ca     52.23000000    39.19000000     0.34000000
   O     53.63000000    40.38000000    -1.62700000
   H     54.59000000    40.35000000    -1.62700000
   H     53.41000000    40.89000000    -2.40700000
   O     50.59000000    39.93000000     2.12000000
   H     49.66000000    39.75000000     2.22000000
   H     50.73000000    40.74000000     2.62000000
   O     50.75000000    41.26000000    -0.90700000
   H     51.07000000    42.08000000    -1.28700000
   H     49.79000000    41.36000000    -0.92700000
   O     54.53000000    37.88000000    -0.13700000
   H     55.15000000    38.25000000    -0.75700000
   H     54.67000000    36.93000000    -0.17700000

Ca 1.70



