%chk=loop3.cluster45.chk
%nprocshared=48
%mem=10GB
%nosave
#b3lyp/svp scf=(tight,noincore) Test 
#IOP(5/87=12) Density=Current Pop=(MK,readradii) iop(6/33=2) iop(6/42=6)

loop3.cluster45 

   0  1 
   C     59.08000000    47.27000000    40.01000000
   C     58.40000000    47.54000000    41.34000000
   O     58.86000000    46.91000000    42.30000000
   H     60.08800000    46.89500000    40.18700000
   H     58.50900000    46.52600000    39.45400000
   H     59.13300000    48.19400000    39.43400000
   N     57.31000000    48.31000000    41.41000000
   C     56.48000000    48.40000000    42.59000000
   C     55.31000000    47.43000000    42.65000000
   O     54.18000000    47.76000000    42.28000000
   C     56.15000000    49.86000000    42.90000000
   C     55.40000000    50.12000000    44.20000000
   O     54.67000000    51.13000000    44.16000000
   O     55.55000000    49.37000000    45.19000000
   H     56.90000000    48.76000000    40.60000000
   H     57.12000000    48.15000000    43.44000000
   H     55.52000000    50.30000000    42.12000000
   H     57.05000000    50.47000000    42.84000000
   N     55.68000000    46.22000000    43.08000000
   C     54.74000000    45.12000000    42.94000000
   C     53.51000000    45.28000000    43.82000000
   O     52.45000000    44.86000000    43.36000000
   C     55.45000000    43.80000000    43.24000000
   C     56.71000000    43.43000000    42.47000000
   C     56.33000000    43.35000000    40.99000000
   C     57.37000000    42.53000000    40.23000000
   N     57.18000000    42.52000000    38.77000000
   H     56.65000000    46.11000000    43.34000000
   H     54.39000000    45.12000000    41.91000000
   H     54.71000000    43.03000000    43.00000000
   H     55.70000000    43.87000000    44.30000000
   H     57.05000000    42.43000000    42.71000000
   H     57.42000000    44.25000000    42.59000000
   H     56.07000000    44.34000000    40.62000000
   H     55.42000000    42.75000000    40.94000000
   H     57.46000000    41.51000000    40.62000000
   H     58.33000000    43.01000000    40.41000000
   H     57.91000000    41.99000000    38.32000000
   H     56.43000000    41.86000000    38.62000000
   H     56.98000000    43.43000000    38.38000000
   N     53.59000000    45.88000000    45.01000000
   C     52.46000000    46.04000000    45.92000000
   C     51.77000000    47.39000000    45.84000000
   O     50.68000000    47.59000000    46.36000000
   C     52.91000000    45.66000000    47.32000000
   C     54.07000000    46.55000000    47.76000000
   O     55.17000000    46.05000000    48.07000000
   O     53.99000000    47.79000000    47.67000000
   H     54.50000000    46.25000000    45.24000000
   H     51.74000000    45.28000000    45.62000000
   H     53.32000000    44.65000000    47.26000000
   H     52.16000000    45.66000000    48.11000000
   N     52.34000000    48.34000000    45.09000000
   C     51.89000000    49.68000000    44.79000000
   C     51.95000000    50.65000000    45.97000000
   O     51.35000000    51.72000000    45.91000000
   H     53.22000000    48.08000000    44.67000000
   H     50.83000000    49.57000000    44.59000000
   H     52.41000000    50.14000000    43.95000000
   N     52.61000000    50.33000000    47.08000000
   C     52.68000000    51.21000000    48.23000000
   C     53.67000000    52.36000000    48.06000000
   O     53.87000000    53.04000000    49.07000000
   C     52.97000000    50.34000000    49.45000000
   C     54.45000000    50.11000000    49.71000000
   N     54.80000000    49.75000000    50.94000000
   O     55.34000000    50.11000000    48.85000000
   H     52.95000000    49.39000000    47.19000000
   H     51.68000000    51.56000000    48.46000000
   H     52.53000000    49.34000000    49.33000000
   H     52.62000000    50.73000000    50.40000000
   H     54.10000000    49.70000000    51.67000000
   H     55.71000000    49.33000000    51.10000000
   N     54.20000000    52.66000000    46.87000000
   C     54.93000000    53.89000000    46.61000000
   C     56.43000000    53.81000000    46.39000000
   O     57.04000000    54.80000000    46.00000000
   H     53.98000000    52.08000000    46.08000000
   H     54.86000000    54.68000000    47.35000000
   H     54.48000000    54.20000000    45.66000000
   N     57.02000000    52.64000000    46.64000000
   C     58.45000000    52.38000000    46.61000000
   C     58.86000000    50.98000000    46.16000000
   O     58.22000000    49.98000000    46.45000000
   C     59.10000000    52.71000000    47.94000000
   C     58.58000000    51.88000000    49.10000000
   C     57.54000000    52.37000000    49.90000000
   C     59.26000000    50.72000000    49.49000000
   C     57.12000000    51.65000000    51.02000000
   C     58.87000000    50.04000000    50.65000000
   C     57.80000000    50.49000000    51.45000000
   O     57.49000000    49.78000000    52.58000000
   H     56.39000000    51.92000000    46.96000000
   H     58.83000000    53.12000000    45.91000000
   H     59.09000000    53.75000000    48.27000000
   H     60.12000000    52.36000000    47.79000000
   H     57.11000000    53.33000000    49.67000000
   H     60.12000000    50.35000000    48.97000000
   H     56.39000000    52.17000000    51.62000000
   H     59.49000000    49.21000000    50.95000000
   H     57.91000000    48.93000000    52.47000000
   N     59.98000000    50.90000000    45.43000000
   C     60.68000000    49.68000000    45.07000000
   C     61.45000000    49.21000000    46.29000000
   O     62.00000000    50.00000000    47.06000000
   C     61.56000000    49.85000000    43.83000000
   C     60.96000000    50.89000000    42.88000000
   C     62.06000000    48.52000000    43.28000000
   C     61.84000000    51.11000000    41.66000000
   H     60.44000000    51.73000000    45.10000000
   H     60.07000000    48.80000000    44.86000000
   H     62.44000000    50.37000000    44.20000000
   H     60.78000000    51.87000000    43.33000000
   H     60.07000000    50.42000000    42.48000000
   H     62.52000000    47.90000000    44.04000000
   H     61.20000000    47.94000000    42.95000000
   H     62.74000000    48.77000000    42.46000000
   H     61.77000000    50.24000000    41.00000000
   H     61.46000000    52.00000000    41.16000000
   H     62.84000000    51.38000000    42.02000000
   N     61.45000000    47.89000000    46.51000000
   C     62.15000000    47.20000000    47.57000000
   C     63.04000000    46.12000000    46.96000000
   O     62.94000000    45.90000000    45.76000000
   C     61.27000000    46.71000000    48.71000000
   O     60.42000000    45.72000000    48.16000000
   H     60.90000000    47.42000000    45.81000000
   H     62.85000000    47.88000000    48.07000000
   H     60.68000000    47.57000000    49.01000000
   H     61.92000000    46.25000000    49.45000000
   H     59.73000000    46.14000000    47.65000000
   N     63.90000000    45.47000000    47.74000000
   C     64.95000000    44.71000000    47.10000000
   C     64.35000000    43.41000000    46.58000000
   O     64.53000000    43.00000000    45.43000000
   C     66.00000000    44.41000000    48.18000000
   H     63.99000000    45.56000000    48.75000000
   H     65.45000000    45.21000000    46.28000000
   H     66.74000000    43.69000000    47.83000000
   H     66.51000000    45.33000000    48.45000000
   H     65.51000000    44.04000000    49.08000000
   N     63.37000000    42.83000000    47.27000000
   C     62.67000000    41.64000000    46.83000000
   C     61.87000000    41.96000000    45.58000000
   O     61.92000000    41.14000000    44.68000000
   C     61.75000000    41.10000000    47.92000000
   H     63.06000000    43.20000000    48.16000000
   H     63.51000000    40.97000000    46.65000000
   H     61.17000000    40.22000000    47.64000000
   H     62.33000000    41.05000000    48.84000000
   H     60.99000000    41.84000000    48.17000000
   N     61.28000000    43.14000000    45.38000000
   C     60.54000000    43.58000000    44.21000000
   C     61.42000000    43.76000000    42.98000000
   O     61.14000000    43.13000000    41.96000000
   C     59.70000000    44.80000000    44.56000000
   C     58.68000000    44.66000000    45.68000000
   C     58.03000000    46.00000000    46.02000000
   O     56.88000000    46.33000000    45.65000000
   O     58.67000000    46.87000000    46.65000000
   H     61.34000000    43.81000000    46.14000000
   H     59.87000000    42.79000000    43.88000000
   H     59.15000000    45.06000000    43.65000000
   H     60.37000000    45.63000000    44.78000000
   H     59.19000000    44.27000000    46.56000000
   H     57.85000000    44.05000000    45.32000000
   N     62.44000000    44.61000000    43.11000000
   C     63.56000000    44.52000000    42.20000000
   H     64.43400000    44.15000000    42.73600000
   H     63.31500000    43.83500000    41.38800000
   H     63.77700000    45.50700000    41.79100000
   H     62.69000000    44.95000000    44.02000000
  Ca     56.53000000    48.26000000    47.36000000
   O     57.16000000    47.07000000    49.71000000
   H     56.71000000    46.22000000    49.66000000
   H     57.77000000    46.97000000    50.45000000

Ca 1.70



