%chk=loop2.cluster47.chk
%nprocshared=48
%mem=10GB
%nosave
#b3lyp/svp scf=(tight,noincore) Test 
#IOP(5/87=12) Density=Current Pop=(MK,readradii) iop(6/33=2) iop(6/42=6)

loop2.cluster47 

   -2  1 
   C     59.18000000    28.94000000     9.55000000
   C     59.38000000    29.18000000     8.06000000
   O     58.83000000    28.47000000     7.22000000
   H     58.12700000    28.73900000     9.74700000
   H     59.77800000    28.08400000     9.86400000
   H     59.49100000    29.82500000    10.10600000
   N     60.28000000    30.10000000     7.73000000
   C     60.43000000    30.55000000     6.36000000
   C     61.12000000    29.53000000     5.46000000
   O     60.94000000    29.66000000     4.26000000
   C     61.15000000    31.88000000     6.54000000
   C     61.05000000    32.63000000     5.22000000
   O     62.10000000    33.08000000     4.70000000
   O     59.96000000    32.85000000     4.65000000
   H     60.70000000    30.65000000     8.46000000
   H     59.48000000    30.78000000     5.88000000
   H     62.20000000    31.67000000     6.75000000
   H     60.69000000    32.50000000     7.31000000
   N     61.85000000    28.57000000     6.04000000
   C     62.45000000    27.41000000     5.42000000
   C     61.41000000    26.51000000     4.75000000
   O     61.70000000    25.61000000     3.97000000
   C     63.68000000    27.69000000     4.55000000
   H     61.79000000    28.66000000     7.05000000
   H     62.87000000    26.78000000     6.21000000
   H     64.48000000    28.29000000     4.99000000
   H     64.19000000    26.77000000     4.26000000
   H     63.39000000    28.31000000     3.70000000
   N     60.15000000    26.76000000     5.08000000
   C     59.04000000    25.91000000     4.69000000
   C     58.80000000    25.78000000     3.19000000
   O     58.01000000    24.94000000     2.77000000
   C     59.06000000    24.61000000     5.47000000
   C     57.67000000    24.11000000     5.84000000
   O     57.47000000    22.94000000     6.23000000
   O     56.69000000    24.85000000     5.60000000
   H     59.91000000    27.50000000     5.73000000
   H     58.16000000    26.43000000     5.07000000
   H     59.64000000    24.72000000     6.39000000
   H     59.54000000    23.85000000     4.86000000
   N     59.50000000    26.55000000     2.35000000
   C     59.36000000    26.61000000     0.91000000
   C     60.35000000    27.55000000     0.24000000
   O     61.43000000    27.73000000     0.81000000
   H     60.12000000    27.17000000     2.84000000
   H     58.34000000    26.95000000     0.69000000
   H     59.52000000    25.66000000     0.39000000
   N     60.04000000    28.20000000    -0.88000000
   C     60.95000000    29.05000000    -1.61000000
   C     60.69000000    30.55000000    -1.67000000
   O     61.68000000    31.28000000    -1.72000000
   C     61.25000000    28.42000000    -2.97000000
   C     60.10000000    28.41000000    -3.97000000
   N     60.27000000    27.76000000    -5.12000000
   O     59.09000000    29.08000000    -3.78000000
   H     59.09000000    28.16000000    -1.23000000
   H     61.89000000    28.97000000    -1.08000000
   H     61.63000000    27.40000000    -2.92000000
   H     61.98000000    29.07000000    -3.45000000
   H     61.09000000    27.22000000    -5.35000000
   H     59.52000000    27.61000000    -5.79000000
   N     59.44000000    31.01000000    -1.59000000
   C     59.09000000    32.41000000    -1.38000000
   C     58.88000000    32.77000000     0.08000000
   O     59.64000000    33.50000000     0.69000000
   H     58.68000000    30.35000000    -1.58000000
   H     58.17000000    32.68000000    -1.90000000
   H     59.88000000    33.04000000    -1.79000000
   N     57.84000000    32.18000000     0.68000000
   C     57.80000000    31.76000000     2.07000000
   C     56.66000000    32.32000000     2.91000000
   O     55.52000000    32.34000000     2.47000000
   C     57.88000000    30.24000000     2.00000000
   C     57.72000000    29.40000000     3.26000000
   O     57.02000000    29.66000000     1.04000000
   H     57.16000000    31.72000000     0.10000000
   H     58.66000000    32.14000000     2.61000000
   H     58.85000000    29.92000000     1.62000000
   H     56.52000000    28.97000000     1.50000000
   H     58.42000000    29.68000000     4.05000000
   H     56.68000000    29.49000000     3.58000000
   H     57.89000000    28.35000000     3.03000000
   N     56.89000000    32.71000000     4.17000000
   C     55.94000000    33.07000000     5.20000000
   C     55.10000000    31.91000000     5.71000000
   O     55.32000000    30.75000000     5.38000000
   C     56.58000000    33.83000000     6.36000000
   C     55.50000000    34.60000000     7.12000000
   C     57.46000000    33.02000000     7.30000000
   C     56.04000000    35.99000000     7.45000000
   H     57.86000000    32.75000000     4.43000000
   H     55.21000000    33.75000000     4.74000000
   H     57.24000000    34.57000000     5.90000000
   H     55.20000000    34.09000000     8.04000000
   H     54.59000000    34.83000000     6.56000000
   H     58.22000000    33.68000000     7.71000000
   H     56.84000000    32.65000000     8.12000000
   H     57.88000000    32.16000000     6.77000000
   H     55.20000000    36.64000000     7.66000000
   H     56.79000000    35.95000000     8.24000000
   H     56.42000000    36.65000000     6.67000000
   N     54.04000000    32.14000000     6.49000000
   C     53.02000000    31.23000000     6.97000000
   C     51.89000000    32.07000000     7.56000000
   O     51.82000000    33.29000000     7.42000000
   C     53.58000000    30.13000000     7.86000000
   C     52.80000000    28.82000000     7.78000000
   O     53.28000000    27.82000000     7.20000000
   O     51.63000000    28.79000000     8.20000000
   H     53.89000000    33.12000000     6.70000000
   H     52.57000000    30.87000000     6.05000000
   H     53.48000000    30.49000000     8.89000000
   H     54.65000000    30.02000000     7.70000000
   N     50.92000000    31.38000000     8.18000000
   C     49.64000000    31.93000000     8.57000000
   C     48.71000000    30.73000000     8.56000000
   O     48.11000000    30.56000000     7.50000000
   C     49.77000000    32.85000000     9.79000000
   C     48.46000000    33.43000000    10.27000000
   C     47.35000000    33.72000000     9.47000000
   C     48.32000000    33.51000000    11.66000000
   C     46.13000000    34.10000000    10.05000000
   C     47.10000000    33.78000000    12.28000000
   C     46.02000000    34.10000000    11.44000000
   H     51.15000000    30.43000000     8.41000000
   H     49.36000000    32.63000000     7.79000000
   H     50.34000000    33.65000000     9.32000000
   H     50.37000000    32.36000000    10.55000000
   H     47.53000000    33.74000000     8.40000000
   H     49.14000000    33.24000000    12.31000000
   H     45.26000000    34.30000000     9.44000000
   H     47.00000000    33.80000000    13.36000000
   H     45.03000000    34.34000000    11.80000000
   N     48.62000000    29.81000000     9.52000000
   C     48.68000000    30.02000000    10.96000000
   C     50.03000000    29.86000000    11.64000000
   O     50.30000000    30.38000000    12.72000000
   C     47.68000000    29.05000000    11.58000000
   C     46.88000000    28.50000000    10.40000000
   C     47.91000000    28.57000000     9.28000000
   H     48.23000000    30.99000000    11.16000000
   H     48.21000000    28.26000000    12.11000000
   H     46.96000000    29.52000000    12.26000000
   H     46.67000000    27.45000000    10.61000000
   H     46.05000000    29.12000000    10.05000000
   H     48.54000000    27.70000000     9.44000000
   H     47.37000000    28.41000000     8.34000000
   N     50.92000000    29.14000000    10.95000000
   C     52.09000000    28.59000000    11.60000000
   C     53.31000000    29.49000000    11.44000000
   O     54.45000000    29.14000000    11.14000000
   C     52.37000000    27.10000000    11.41000000
   C     51.14000000    26.26000000    11.70000000
   C     50.53000000    26.43000000    13.09000000
   O     51.28000000    26.83000000    14.00000000
   O     49.36000000    26.05000000    13.30000000
   H     50.81000000    29.01000000     9.95000000
   H     51.96000000    28.61000000    12.68000000
   H     53.13000000    26.80000000    12.14000000
   H     52.73000000    26.92000000    10.40000000
   H     51.45000000    25.21000000    11.67000000
   H     50.35000000    26.35000000    10.95000000
   N     53.08000000    30.79000000    11.63000000
   C     54.07000000    31.80000000    11.95000000
   H     54.95600000    31.64800000    11.33300000
   H     53.65700000    32.78900000    11.75400000
   H     54.34300000    31.72200000    13.00200000
   H     52.13000000    31.05000000    11.87000000
  Ca     54.37000000    25.87000000     5.89000000
   O     51.97000000    25.36000000     4.82000000
   H     51.54000000    25.87000000     4.13000000
   H     51.48000000    24.53000000     4.84000000
   O     56.27000000    27.73000000     6.00000000
   H     55.94000000    28.63000000     5.93000000
   H     57.21000000    27.83000000     6.15000000
   O     55.45000000    25.65000000     8.44000000
   H     55.40000000    26.14000000     9.26000000
   H     55.12000000    24.77000000     8.66000000
   O     53.88000000    27.43000000     3.77000000
   H     54.00000000    26.98000000     2.93000000
   H     53.91000000    28.36000000     3.55000000
   O     54.59000000    23.08000000     5.70000000
   H     54.06000000    22.45000000     6.18000000
   H     55.49000000    22.87000000     5.94000000
   O     53.08000000    24.46000000     7.93000000
   H     52.79000000    23.55000000     7.98000000
   H     52.34000000    24.97000000     8.27000000
   O     55.27000000    24.89000000     3.23000000
   H     56.17000000    24.89000000     3.54000000
   H     55.20000000    24.12000000     2.67000000

Ca 1.70



