%chk=loop3.cluster52.chk
%nprocshared=48
%mem=10GB
%nosave
#b3lyp/svp scf=(tight,noincore) Test 
#IOP(5/87=12) Density=Current Pop=(MK,readradii) iop(6/33=2) iop(6/42=6)

loop3.cluster52 

   0  1 
   C     96.92000000    40.51000000   105.78000000
   C     98.18000000    41.29000000   105.44000000
   O     98.91000000    40.99000000   104.50000000
   H     96.11000000    40.82500000   105.12200000
   H     97.10400000    39.44400000   105.64500000
   H     96.64100000    40.70200000   106.81600000
   N     98.47000000    42.28000000   106.28000000
   C     99.56000000    43.19000000   105.99000000
   C    100.92000000    42.68000000   106.44000000
   O    101.01000000    41.89000000   107.38000000
   C     99.27000000    44.59000000   106.54000000
   C     99.07000000    44.60000000   108.05000000
   O     98.26000000    43.84000000   108.62000000
   O     99.79000000    45.41000000   108.66000000
   H     97.80000000    42.51000000   107.00000000
   H     99.58000000    43.36000000   104.91000000
   H     98.24000000    44.73000000   106.19000000
   H     99.97000000    45.33000000   106.16000000
   N    101.98000000    43.26000000   105.88000000
   C    103.35000000    43.10000000   106.33000000
   C    104.05000000    41.81000000   105.90000000
   O    105.12000000    41.51000000   106.43000000
   C    104.20000000    44.25000000   105.80000000
   C    103.76000000    45.60000000   106.35000000
   C    104.65000000    46.70000000   105.77000000
   C    104.00000000    48.02000000   106.15000000
   N    104.82000000    49.19000000   105.79000000
   H    101.87000000    43.91000000   105.11000000
   H    103.44000000    43.10000000   107.41000000
   H    104.14000000    44.32000000   104.71000000
   H    105.24000000    44.12000000   106.08000000
   H    103.79000000    45.59000000   107.44000000
   H    102.75000000    45.80000000   105.98000000
   H    104.76000000    46.54000000   104.70000000
   H    105.71000000    46.56000000   106.02000000
   H    103.94000000    48.04000000   107.24000000
   H    103.02000000    48.12000000   105.70000000
   H    105.65000000    49.16000000   106.36000000
   H    105.02000000    49.13000000   104.80000000
   H    104.46000000    50.10000000   106.00000000
   N    103.49000000    41.07000000   104.94000000
   C    103.97000000    39.77000000   104.53000000
   C    105.06000000    39.78000000   103.47000000
   O    105.86000000    38.85000000   103.39000000
   C    102.82000000    38.86000000   104.10000000
   C    101.81000000    39.53000000   103.18000000
   O    100.76000000    38.89000000   103.00000000
   O    102.07000000    40.56000000   102.52000000
   H    102.69000000    41.50000000   104.51000000
   H    104.53000000    39.36000000   105.37000000
   H    102.19000000    38.73000000   104.98000000
   H    103.20000000    37.93000000   103.68000000
   N    105.18000000    40.83000000   102.65000000
   C    106.07000000    41.00000000   101.52000000
   C    107.45000000    41.60000000   101.74000000
   O    107.81000000    42.16000000   102.77000000
   H    104.44000000    41.51000000   102.75000000
   H    105.53000000    41.43000000   100.67000000
   H    106.23000000    39.97000000   101.20000000
   N    108.31000000    41.54000000   100.72000000
   C    108.28000000    40.87000000    99.44000000
   C    107.27000000    41.49000000    98.48000000
   O    107.12000000    42.70000000    98.57000000
   C    109.70000000    40.81000000    98.87000000
   C    110.64000000    40.26000000    99.94000000
   N    110.61000000    38.97000000   100.29000000
   O    111.49000000    40.95000000   100.48000000
   H    109.12000000    42.14000000   100.79000000
   H    107.92000000    39.85000000    99.64000000
   H    110.00000000    41.77000000    98.45000000
   H    109.78000000    40.04000000    98.10000000
   H    109.97000000    38.25000000    99.99000000
   H    111.36000000    38.79000000   100.94000000
   N    106.58000000    40.76000000    97.60000000
   C    106.76000000    39.39000000    97.19000000
   C    105.83000000    38.38000000    97.85000000
   O    104.84000000    38.73000000    98.48000000
   H    105.94000000    41.34000000    97.07000000
   H    107.81000000    39.20000000    97.44000000
   H    106.53000000    39.14000000    96.16000000
   N    106.21000000    37.14000000    97.53000000
   C    105.32000000    36.00000000    97.68000000
   C    106.01000000    34.85000000    98.40000000
   O    107.24000000    34.77000000    98.39000000
   C    104.84000000    35.66000000    96.27000000
   C    103.96000000    36.69000000    95.60000000
   C    102.63000000    36.84000000    96.02000000
   C    104.45000000    37.46000000    94.54000000
   C    101.86000000    37.83000000    95.41000000
   C    103.63000000    38.37000000    93.86000000
   C    102.34000000    38.65000000    94.36000000
   O    101.50000000    39.57000000    93.81000000
   H    107.11000000    36.98000000    97.09000000
   H    104.48000000    36.35000000    98.28000000
   H    104.28000000    34.73000000    96.39000000
   H    105.73000000    35.62000000    95.64000000
   H    102.38000000    36.23000000    96.87000000
   H    105.50000000    37.41000000    94.29000000
   H    100.85000000    38.02000000    95.74000000
   H    104.05000000    38.85000000    92.99000000
   H    101.88000000    39.99000000    93.04000000
   N    105.28000000    33.95000000    99.06000000
   C    105.79000000    32.67000000    99.49000000
   C    105.54000000    31.56000000    98.48000000
   O    106.45000000    30.75000000    98.34000000
   C    105.32000000    32.33000000   100.90000000
   C    106.04000000    33.21000000   101.92000000
   C    103.80000000    32.29000000   101.00000000
   C    107.55000000    32.98000000   101.97000000
   H    104.28000000    34.09000000    99.05000000
   H    106.88000000    32.77000000    99.52000000
   H    105.70000000    31.31000000   101.04000000
   H    105.65000000    33.00000000   102.91000000
   H    105.80000000    34.26000000   101.72000000
   H    103.49000000    33.34000000   101.02000000
   H    103.35000000    31.77000000   100.16000000
   H    103.48000000    31.85000000   101.95000000
   H    107.87000000    31.94000000   101.86000000
   H    107.99000000    33.54000000   101.15000000
   H    107.99000000    33.20000000   102.94000000
   N    104.47000000    31.64000000    97.69000000
   C    104.39000000    30.98000000    96.40000000
   C    103.45000000    29.78000000    96.47000000
   O    103.12000000    29.19000000    95.44000000
   C    103.81000000    31.91000000    95.34000000
   O    102.57000000    32.46000000    95.74000000
   H    103.79000000    32.36000000    97.87000000
   H    105.39000000    30.60000000    96.21000000
   H    103.89000000    31.48000000    94.34000000
   H    104.49000000    32.75000000    95.22000000
   H    102.74000000    32.99000000    96.52000000
   N    103.01000000    29.37000000    97.66000000
   C    101.94000000    28.41000000    97.83000000
   C    101.06000000    28.85000000    99.00000000
   O    101.48000000    29.65000000    99.84000000
   C    102.55000000    27.04000000    98.10000000
   H    103.30000000    29.89000000    98.48000000
   H    101.22000000    28.39000000    97.01000000
   H    103.27000000    26.76000000    97.33000000
   H    103.14000000    27.08000000    99.01000000
   H    101.68000000    26.39000000    98.09000000
   N     99.83000000    28.34000000    99.06000000
   C     98.89000000    28.47000000   100.15000000
   C     98.45000000    29.86000000   100.58000000
   O     97.47000000    30.00000000   101.31000000
   C     99.37000000    27.60000000   101.31000000
   H     99.52000000    27.88000000    98.21000000
   H     97.98000000    27.95000000    99.85000000
   H    100.17000000    28.09000000   101.87000000
   H     98.51000000    27.46000000   101.96000000
   H     99.63000000    26.59000000   101.00000000
   N     99.10000000    30.92000000   100.09000000
   C     98.90000000    32.28000000   100.57000000
   C     97.66000000    33.02000000   100.07000000
   O     97.26000000    34.00000000   100.69000000
   C    100.15000000    33.10000000   100.28000000
   C    100.44000000    33.50000000    98.83000000
   C    101.78000000    34.21000000    98.73000000
   O    102.03000000    35.24000000    99.40000000
   O    102.69000000    33.74000000    98.01000000
   H     99.91000000    30.88000000    99.50000000
   H     98.73000000    32.22000000   101.64000000
   H    101.03000000    32.54000000   100.60000000
   H    100.13000000    33.97000000   100.94000000
   H     99.64000000    34.07000000    98.38000000
   H    100.55000000    32.59000000    98.24000000
   N     97.15000000    32.66000000    98.89000000
   C     95.89000000    33.03000000    98.28000000
   H     95.16400000    33.26300000    99.05900000
   H     96.03600000    33.90500000    97.64600000
   H     95.52000000    32.20100000    97.67700000
   H     97.66000000    31.92000000    98.43000000
  Ca    100.53000000    39.75000000   100.39000000
   O    100.43000000    36.89000000   100.63000000
   H    101.09000000    36.38000000   100.15000000
   H    100.31000000    36.41000000   101.45000000
   O    102.96000000    38.48000000   100.53000000
   H    103.62000000    38.75000000    99.89000000
   H    103.22000000    37.59000000   100.78000000
   O     99.72000000    41.71000000   102.06000000
   H     99.63000000    42.66000000   102.19000000
   H     99.97000000    41.37000000   102.91000000
   O    101.85000000    39.70000000    97.92000000
   H    102.66000000    39.26000000    97.67000000
   H    101.71000000    40.36000000    97.24000000
   O     99.12000000    41.25000000    98.71000000
   H     98.21000000    41.24000000    99.01000000
   H     99.06000000    41.48000000    97.79000000
   O    101.98000000    42.32000000    99.80000000
   H    102.75000000    42.33000000    99.23000000
   H    102.10000000    43.07000000   100.39000000
   O     98.14000000    39.17000000   101.46000000
   H     98.45000000    39.38000000   102.35000000
   H     97.55000000    38.43000000   101.59000000
   O     98.80000000    38.37000000    98.80000000
   H     98.89000000    37.42000000    98.92000000
   H     98.11000000    38.46000000    98.14000000

Ca 1.70



