%chk=loop3.cluster16.chk
%nprocshared=48
%mem=10GB
%nosave
#b3lyp/svp scf=(tight,noincore) Test 
#IOP(5/87=12) Density=Current Pop=(MK,readradii) iop(6/33=2) iop(6/42=6)

loop3.cluster16 

   0  1 
   C     57.82000000    48.16000000    43.30000000
   C     57.30000000    47.93000000    44.71000000
   O     57.95000000    47.33000000    45.56000000
   H     58.84500000    47.79600000    43.22700000
   H     57.19300000    47.62300000    42.58900000
   H     57.79700000    49.22600000    43.07300000
   N     56.14000000    48.49000000    45.05000000
   C     55.41000000    48.18000000    46.27000000
   C     54.63000000    46.90000000    46.03000000
   O     53.75000000    46.87000000    45.17000000
   C     54.49000000    49.34000000    46.67000000
   C     53.67000000    49.15000000    47.93000000
   O     53.10000000    50.20000000    48.31000000
   O     53.88000000    48.19000000    48.70000000
   H     55.72000000    49.17000000    44.42000000
   H     56.14000000    48.02000000    47.06000000
   H     53.81000000    49.46000000    45.82000000
   H     55.11000000    50.23000000    46.80000000
   N     54.88000000    45.88000000    46.85000000
   C     54.53000000    44.50000000    46.59000000
   C     53.26000000    44.20000000    47.39000000
   O     52.59000000    43.27000000    46.95000000
   C     55.68000000    43.57000000    46.96000000
   C     57.02000000    43.70000000    46.24000000
   C     56.81000000    43.74000000    44.73000000
   C     58.13000000    44.12000000    44.05000000
   N     58.25000000    43.78000000    42.62000000
   H     55.52000000    46.12000000    47.60000000
   H     54.27000000    44.42000000    45.54000000
   H     55.31000000    42.57000000    46.72000000
   H     55.85000000    43.69000000    48.03000000
   H     57.65000000    42.86000000    46.52000000
   H     57.55000000    44.57000000    46.64000000
   H     56.09000000    44.54000000    44.58000000
   H     56.34000000    42.85000000    44.32000000
   H     58.99000000    43.76000000    44.60000000
   H     58.31000000    45.19000000    44.16000000
   H     59.14000000    43.81000000    42.13000000
   H     57.86000000    42.87000000    42.47000000
   H     57.59000000    44.38000000    42.15000000
   N     52.86000000    44.91000000    48.44000000
   C     51.58000000    44.77000000    49.10000000
   C     50.58000000    45.88000000    48.81000000
   O     49.40000000    45.76000000    49.13000000
   C     51.67000000    44.55000000    50.61000000
   C     52.38000000    45.64000000    51.39000000
   O     52.52000000    45.60000000    52.63000000
   O     52.77000000    46.68000000    50.81000000
   H     53.43000000    45.68000000    48.74000000
   H     51.12000000    43.87000000    48.68000000
   H     52.29000000    43.67000000    50.82000000
   H     50.70000000    44.33000000    51.07000000
   N     51.02000000    46.96000000    48.16000000
   C     50.14000000    48.09000000    47.90000000
   C     49.79000000    48.92000000    49.13000000
   O     48.88000000    49.74000000    49.06000000
   H     51.98000000    47.12000000    47.90000000
   H     49.22000000    47.77000000    47.42000000
   H     50.70000000    48.73000000    47.23000000
   N     50.49000000    48.80000000    50.27000000
   C     50.21000000    49.59000000    51.45000000
   C     50.46000000    51.09000000    51.38000000
   O     49.96000000    51.87000000    52.19000000
   C     50.97000000    48.96000000    52.62000000
   C     52.33000000    49.57000000    52.92000000
   N     52.49000000    50.16000000    54.11000000
   O     53.24000000    49.54000000    52.09000000
   H     51.05000000    47.96000000    50.37000000
   H     49.17000000    49.45000000    51.74000000
   H     51.11000000    47.89000000    52.44000000
   H     50.37000000    49.01000000    53.52000000
   H     51.70000000    50.21000000    54.75000000
   H     53.32000000    50.65000000    54.40000000
   N     51.38000000    51.50000000    50.51000000
   C     51.56000000    52.86000000    50.07000000
   C     53.02000000    53.24000000    49.89000000
   O     53.22000000    54.43000000    49.67000000
   H     51.76000000    50.86000000    49.82000000
   H     51.13000000    53.56000000    50.79000000
   H     51.18000000    52.93000000    49.05000000
   N     53.95000000    52.32000000    50.18000000
   C     55.38000000    52.51000000    50.33000000
   C     56.24000000    51.34000000    49.88000000
   O     55.87000000    50.18000000    50.04000000
   C     55.58000000    52.72000000    51.83000000
   C     54.96000000    53.91000000    52.51000000
   C     55.72000000    55.05000000    52.77000000
   C     53.66000000    53.80000000    53.03000000
   C     55.08000000    56.13000000    53.38000000
   C     53.00000000    54.93000000    53.52000000
   C     53.71000000    56.13000000    53.73000000
   O     53.12000000    57.20000000    54.33000000
   H     53.70000000    51.38000000    50.44000000
   H     55.70000000    53.40000000    49.79000000
   H     56.66000000    52.71000000    52.00000000
   H     55.18000000    51.84000000    52.33000000
   H     56.75000000    55.18000000    52.45000000
   H     53.01000000    52.94000000    52.96000000
   H     55.68000000    57.00000000    53.62000000
   H     51.97000000    54.86000000    53.83000000
   H     52.19000000    56.99000000    54.40000000
   N     57.38000000    51.65000000    49.27000000
   C     58.38000000    50.67000000    48.89000000
   C     59.26000000    50.63000000    50.13000000
   O     59.64000000    51.66000000    50.67000000
   C     59.23000000    51.10000000    47.69000000
   C     58.50000000    51.70000000    46.50000000
   C     60.04000000    49.90000000    47.21000000
   C     59.42000000    52.26000000    45.42000000
   H     57.67000000    52.62000000    49.26000000
   H     57.82000000    49.75000000    48.75000000
   H     59.85000000    51.92000000    48.04000000
   H     57.87000000    52.53000000    46.84000000
   H     57.98000000    50.80000000    46.18000000
   H     60.73000000    49.41000000    47.91000000
   H     59.38000000    49.09000000    46.91000000
   H     60.70000000    50.18000000    46.39000000
   H     58.69000000    52.56000000    44.67000000
   H     59.99000000    53.14000000    45.72000000
   H     60.03000000    51.54000000    44.87000000
   N     59.68000000    49.42000000    50.51000000
   C     60.58000000    49.20000000    51.63000000
   C     61.76000000    48.42000000    51.07000000
   O     61.78000000    47.94000000    49.94000000
   C     59.94000000    48.35000000    52.72000000
   O     59.41000000    47.11000000    52.32000000
   H     59.26000000    48.64000000    50.02000000
   H     60.88000000    50.17000000    52.02000000
   H     59.12000000    48.89000000    53.19000000
   H     60.67000000    48.26000000    53.54000000
   H     58.69000000    47.24000000    51.70000000
   N     62.79000000    48.19000000    51.89000000
   C     63.97000000    47.50000000    51.40000000
   C     63.78000000    46.08000000    50.87000000
   O     64.37000000    45.74000000    49.85000000
   C     65.03000000    47.63000000    52.48000000
   H     62.74000000    48.46000000    52.86000000
   H     64.34000000    48.00000000    50.50000000
   H     65.81000000    46.91000000    52.23000000
   H     65.44000000    48.64000000    52.49000000
   H     64.60000000    47.39000000    53.45000000
   N     62.99000000    45.29000000    51.61000000
   C     62.60000000    43.94000000    51.26000000
   C     61.98000000    43.89000000    49.87000000
   O     61.96000000    42.89000000    49.16000000
   C     61.62000000    43.40000000    52.29000000
   H     62.46000000    45.69000000    52.37000000
   H     63.47000000    43.29000000    51.24000000
   H     62.15000000    43.01000000    53.16000000
   H     60.76000000    44.03000000    52.55000000
   H     61.09000000    42.57000000    51.83000000
   N     61.32000000    45.00000000    49.51000000
   C     60.56000000    45.10000000    48.28000000
   C     61.38000000    45.52000000    47.06000000
   O     61.20000000    44.86000000    46.04000000
   C     59.46000000    46.10000000    48.59000000
   C     58.42000000    45.49000000    49.53000000
   C     57.45000000    46.64000000    49.74000000
   O     56.29000000    46.53000000    49.30000000
   O     57.61000000    47.50000000    50.64000000
   H     61.25000000    45.73000000    50.20000000
   H     60.07000000    44.15000000    48.06000000
   H     58.91000000    46.39000000    47.70000000
   H     59.84000000    47.04000000    48.99000000
   H     58.81000000    45.31000000    50.53000000
   H     57.93000000    44.59000000    49.15000000
   N     62.39000000    46.35000000    47.28000000
   C     63.42000000    46.65000000    46.30000000
   H     64.33700000    46.12500000    46.56600000
   H     63.08900000    46.32600000    45.31300000
   H     63.60800000    47.72400000    46.28600000
   H     62.29000000    46.89000000    48.13000000
  Ca     54.95000000    47.84000000    51.02000000
   O     54.43000000    47.18000000    53.70000000
   H     54.55000000    46.99000000    54.63000000
   H     53.96000000    46.42000000    53.36000000
   O     56.36000000    49.13000000    52.83000000
   H     56.92000000    49.81000000    53.22000000
   H     55.97000000    48.68000000    53.57000000
   O     55.40000000    45.34000000    51.85000000
   H     56.04000000    45.15000000    52.53000000
   H     55.32000000    44.53000000    51.35000000

Ca 1.70



