%chk=loop3.cluster153.chk
%nprocshared=48
%mem=10GB
%nosave
#b3lyp/svp scf=(tight,noincore) Test 
#IOP(5/87=12) Density=Current Pop=(MK,readradii) iop(6/33=2) iop(6/42=6)

loop3.cluster153 

   0  1 
   C    106.01000000    54.84000000    11.18000000
   C    105.13000000    55.81000000    10.41000000
   O    103.98000000    55.56000000    10.07000000
   H    106.91800000    55.35000000    11.50000000
   H    105.47100000    54.47500000    12.05400000
   H    106.27300000    53.99900000    10.53800000
   N    105.69000000    57.00000000    10.13000000
   C    105.24000000    57.93000000     9.12000000
   C    105.16000000    57.31000000     7.73000000
   O    105.80000000    56.36000000     7.30000000
   C    105.98000000    59.26000000     9.20000000
   C    107.45000000    59.17000000     8.80000000
   O    108.25000000    58.75000000     9.67000000
   O    107.75000000    59.44000000     7.62000000
   H    106.56000000    57.25000000    10.56000000
   H    104.21000000    58.21000000     9.38000000
   H    105.95000000    59.68000000    10.20000000
   H    105.49000000    59.94000000     8.50000000
   N    104.14000000    57.74000000     6.97000000
   C    103.90000000    57.30000000     5.61000000
   C    103.08000000    56.01000000     5.63000000
   O    103.29000000    55.19000000     4.74000000
   C    103.25000000    58.43000000     4.83000000
   C    102.99000000    58.12000000     3.36000000
   C    104.27000000    58.22000000     2.53000000
   C    103.76000000    58.34000000     1.10000000
   N    104.86000000    58.43000000     0.12000000
   H    103.75000000    58.63000000     7.24000000
   H    104.86000000    57.20000000     5.10000000
   H    103.80000000    59.37000000     4.86000000
   H    102.33000000    58.71000000     5.34000000
   H    102.23000000    58.81000000     3.00000000
   H    102.65000000    57.09000000     3.26000000
   H    104.91000000    57.35000000     2.66000000
   H    104.81000000    59.10000000     2.89000000
   H    103.09000000    59.18000000     0.93000000
   H    103.12000000    57.47000000     0.94000000
   H    105.57000000    57.74000000     0.30000000
   H    104.49000000    58.41000000    -0.82000000
   H    105.46000000    59.23000000     0.22000000
   N    102.12000000    55.96000000     6.55000000
   C    101.19000000    54.87000000     6.78000000
   C    100.02000000    54.80000000     5.81000000
   O     98.84000000    54.97000000     6.12000000
   C    100.74000000    54.68000000     8.23000000
   C    100.18000000    55.91000000     8.92000000
   O     99.80000000    55.83000000    10.11000000
   O    100.15000000    57.01000000     8.34000000
   H    102.22000000    56.60000000     7.33000000
   H    101.74000000    54.00000000     6.43000000
   H    101.60000000    54.32000000     8.81000000
   H     99.94000000    53.94000000     8.25000000
   N    100.37000000    54.77000000     4.53000000
   C     99.56000000    55.13000000     3.39000000
   C     99.29000000    56.60000000     3.11000000
   O     99.72000000    57.42000000     3.92000000
   H    101.37000000    54.75000000     4.36000000
   H     98.61000000    54.59000000     3.32000000
   H    100.02000000    54.90000000     2.42000000
   N     98.64000000    56.99000000     2.01000000
   C     97.76000000    56.19000000     1.18000000
   C     96.33000000    56.71000000     1.34000000
   O     96.20000000    57.90000000     1.60000000
   C     98.23000000    56.41000000    -0.25000000
   C     99.59000000    55.76000000    -0.44000000
   N    100.62000000    56.62000000    -0.43000000
   O     99.81000000    54.56000000    -0.55000000
   H     98.63000000    57.97000000     1.74000000
   H     97.84000000    55.13000000     1.39000000
   H     98.18000000    57.45000000    -0.57000000
   H     97.53000000    55.88000000    -0.89000000
   H    100.45000000    57.61000000    -0.36000000
   H    101.56000000    56.26000000    -0.32000000
   N     95.29000000    55.88000000     1.22000000
   C     95.22000000    54.52000000     0.75000000
   C     95.66000000    53.43000000     1.72000000
   O     96.11000000    53.77000000     2.81000000
   H     94.41000000    56.27000000     1.54000000
   H     95.78000000    54.40000000    -0.18000000
   H     94.15000000    54.35000000     0.63000000
   N     95.50000000    52.19000000     1.24000000
   C     95.86000000    50.89000000     1.76000000
   C     96.20000000    49.95000000     0.62000000
   O     95.33000000    49.25000000     0.09000000
   C     94.74000000    50.36000000     2.65000000
   C     94.34000000    51.34000000     3.73000000
   C     95.30000000    51.70000000     4.68000000
   C     93.22000000    52.17000000     3.58000000
   C     95.14000000    52.77000000     5.57000000
   C     92.97000000    53.12000000     4.58000000
   C     93.93000000    53.50000000     5.54000000
   O     93.68000000    54.49000000     6.44000000
   H     95.05000000    52.13000000     0.34000000
   H     96.76000000    51.08000000     2.34000000
   H     95.02000000    49.42000000     3.12000000
   H     93.85000000    50.19000000     2.04000000
   H     96.23000000    51.16000000     4.57000000
   H     92.45000000    51.94000000     2.86000000
   H     95.82000000    52.93000000     6.39000000
   H     91.99000000    53.56000000     4.60000000
   H     92.81000000    54.90000000     6.42000000
   N     97.50000000    49.88000000     0.30000000
   C     97.99000000    49.41000000    -0.98000000
   C     98.98000000    48.25000000    -1.05000000
   O     99.19000000    47.69000000    -2.12000000
   C     98.51000000    50.56000000    -1.83000000
   C     97.38000000    51.45000000    -2.33000000
   C     99.51000000    51.41000000    -1.05000000
   C     97.71000000    52.80000000    -2.97000000
   H     98.11000000    50.43000000     0.89000000
   H     97.14000000    48.95000000    -1.49000000
   H     99.04000000    50.22000000    -2.72000000
   H     96.66000000    51.68000000    -1.54000000
   H     96.89000000    50.84000000    -3.09000000
   H     99.95000000    52.16000000    -1.71000000
   H     99.17000000    51.95000000    -0.16000000
   H    100.27000000    50.73000000    -0.66000000
   H     98.20000000    52.69000000    -3.93000000
   H     96.79000000    53.37000000    -3.13000000
   H     98.27000000    53.40000000    -2.26000000
   N     99.40000000    47.76000000     0.11000000
   C    100.29000000    46.62000000     0.18000000
   C    101.72000000    46.98000000     0.57000000
   O    102.63000000    46.17000000     0.39000000
   C     99.68000000    45.63000000     1.16000000
   O    100.00000000    45.99000000     2.49000000
   H     99.16000000    48.30000000     0.93000000
   H    100.35000000    46.17000000    -0.82000000
   H    100.04000000    44.64000000     0.89000000
   H     98.62000000    45.63000000     0.90000000
   H     99.68000000    46.89000000     2.58000000
   N    102.02000000    48.20000000     1.02000000
   C    103.41000000    48.58000000     1.22000000
   C    103.91000000    48.34000000     2.64000000
   O    104.79000000    49.06000000     3.10000000
   C    103.50000000    50.03000000     0.76000000
   H    101.30000000    48.89000000     1.14000000
   H    104.08000000    47.96000000     0.64000000
   H    103.20000000    50.13000000    -0.28000000
   H    102.89000000    50.72000000     1.36000000
   H    104.50000000    50.45000000     0.80000000
   N    103.33000000    47.33000000     3.29000000
   C    103.46000000    47.09000000     4.71000000
   C    102.76000000    48.03000000     5.67000000
   O    103.09000000    48.14000000     6.85000000
   C    104.92000000    46.75000000     5.00000000
   H    102.59000000    46.87000000     2.76000000
   H    103.00000000    46.10000000     4.79000000
   H    105.44000000    46.37000000     4.11000000
   H    105.37000000    47.67000000     5.36000000
   H    105.02000000    45.95000000     5.73000000
   N    101.84000000    48.82000000     5.11000000
   C    101.03000000    49.66000000     5.96000000
   C    100.00000000    48.91000000     6.79000000
   O     99.85000000    49.18000000     7.98000000
   C    100.38000000    50.82000000     5.21000000
   C     99.25000000    50.58000000     4.21000000
   C     99.57000000    49.66000000     3.04000000
   O     99.56000000    48.41000000     3.18000000
   O     99.73000000    50.23000000     1.94000000
   H    101.46000000    48.61000000     4.19000000
   H    101.60000000    50.15000000     6.75000000
   H    101.26000000    51.25000000     4.72000000
   H    100.00000000    51.53000000     5.94000000
   H     98.95000000    51.56000000     3.84000000
   H     98.37000000    50.17000000     4.70000000
   N     99.24000000    48.03000000     6.13000000
   C     98.34000000    47.10000000     6.79000000
   H     97.39500000    47.06400000     6.24900000
   H     98.78900000    46.10700000     6.80300000
   H     98.16000000    47.43100000     7.81300000
   H     99.38000000    47.97000000     5.13000000
  Ca     97.85000000    57.44000000    10.37000000
   O     96.98000000    56.26000000     8.12000000
   H     97.59000000    56.06000000     7.41000000
   H     96.32000000    55.56000000     8.07000000
   O     95.53000000    58.72000000    10.92000000
   H     94.82000000    58.41000000    11.48000000
   H     95.57000000    59.66000000    11.08000000
   O     98.24000000    59.61000000     8.79000000
   H     98.29000000    59.19000000     7.93000000
   H     98.40000000    60.54000000     8.62000000
   O     96.22000000    55.60000000    11.15000000
   H     96.25000000    55.23000000    12.03000000
   H     95.63000000    55.01000000    10.67000000

Ca 1.70



