%chk=loop3.cluster73.chk
%nprocshared=48
%mem=10GB
%nosave
#b3lyp/svp scf=(tight,noincore) Test 
#IOP(5/87=12) Density=Current Pop=(MK,readradii) iop(6/33=2) iop(6/42=6)

loop3.cluster73 

   0  1 
   C     52.61000000    55.94000000    41.17000000
   C     53.37000000    56.26000000    42.45000000
   O     52.74000000    56.63000000    43.44000000
   H     51.71100000    56.55400000    41.11900000
   H     53.24300000    56.15100000    40.30800000
   H     52.33000000    54.88600000    41.16600000
   N     54.70000000    56.14000000    42.44000000
   C     55.54000000    56.15000000    43.62000000
   C     55.63000000    57.54000000    44.25000000
   O     56.70000000    58.14000000    44.19000000
   C     55.21000000    55.14000000    44.71000000
   C     54.99000000    53.68000000    44.33000000
   O     54.42000000    53.04000000    45.24000000
   O     55.50000000    53.30000000    43.25000000
   H     55.21000000    55.81000000    41.64000000
   H     56.54000000    55.85000000    43.30000000
   H     54.34000000    55.56000000    45.22000000
   H     56.05000000    55.12000000    45.41000000
   N     54.53000000    58.11000000    44.73000000
   C     54.47000000    59.46000000    45.26000000
   C     55.07000000    59.66000000    46.64000000
   O     55.14000000    60.79000000    47.12000000
   C     53.04000000    60.00000000    45.17000000
   C     52.09000000    59.47000000    46.23000000
   C     51.72000000    57.99000000    46.16000000
   C     50.79000000    57.53000000    47.29000000
   N     51.26000000    56.30000000    47.94000000
   H     53.66000000    57.60000000    44.61000000
   H     55.09000000    60.00000000    44.55000000
   H     52.65000000    59.80000000    44.17000000
   H     53.02000000    61.08000000    45.27000000
   H     51.16000000    60.04000000    46.18000000
   H     52.59000000    59.57000000    47.19000000
   H     52.68000000    57.49000000    46.28000000
   H     51.43000000    57.73000000    45.14000000
   H     49.74000000    57.60000000    47.00000000
   H     50.89000000    58.22000000    48.12000000
   H     51.34000000    55.46000000    47.38000000
   H     52.17000000    56.48000000    48.33000000
   H     50.77000000    56.11000000    48.80000000
   N     55.48000000    58.57000000    47.30000000
   C     55.96000000    58.46000000    48.66000000
   C     56.60000000    57.11000000    48.96000000
   O     56.57000000    56.24000000    48.09000000
   C     54.85000000    58.79000000    49.65000000
   C     53.66000000    57.86000000    49.50000000
   O     52.57000000    58.26000000    49.95000000
   O     53.74000000    56.74000000    48.94000000
   H     55.56000000    57.64000000    46.90000000
   H     56.74000000    59.20000000    48.85000000
   H     54.55000000    59.79000000    49.34000000
   H     55.13000000    58.66000000    50.69000000
   N     57.14000000    56.85000000    50.15000000
   C     57.65000000    55.57000000    50.60000000
   C     56.62000000    54.68000000    51.28000000
   O     56.86000000    54.25000000    52.40000000
   H     57.09000000    57.58000000    50.85000000
   H     58.44000000    55.71000000    51.35000000
   H     57.98000000    55.03000000    49.71000000
   N     55.49000000    54.50000000    50.59000000
   C     54.44000000    53.57000000    50.97000000
   C     54.81000000    52.10000000    50.95000000
   O     54.29000000    51.27000000    51.69000000
   C     53.29000000    53.85000000    50.01000000
   C     52.18000000    52.81000000    49.93000000
   N     51.28000000    52.66000000    50.91000000
   O     52.10000000    52.06000000    48.96000000
   H     55.32000000    55.06000000    49.77000000
   H     54.13000000    53.81000000    51.98000000
   H     53.53000000    54.02000000    48.96000000
   H     52.82000000    54.77000000    50.37000000
   H     51.27000000    53.27000000    51.71000000
   H     50.69000000    51.83000000    50.92000000
   N     55.80000000    51.76000000    50.11000000
   C     56.33000000    50.41000000    50.04000000
   C     55.36000000    49.25000000    49.88000000
   O     54.75000000    49.02000000    48.84000000
   H     56.05000000    52.46000000    49.43000000
   H     56.86000000    50.26000000    50.99000000
   H     57.04000000    50.36000000    49.22000000
   N     55.24000000    48.44000000    50.93000000
   C     54.61000000    47.13000000    50.95000000
   C     53.11000000    47.15000000    50.68000000
   O     52.38000000    46.19000000    50.91000000
   C     55.35000000    46.18000000    50.01000000
   C     56.80000000    45.93000000    50.37000000
   C     57.19000000    45.11000000    51.44000000
   C     57.77000000    46.51000000    49.55000000
   C     58.52000000    45.03000000    51.84000000
   C     59.11000000    46.30000000    49.88000000
   C     59.52000000    45.64000000    51.06000000
   O     60.83000000    45.58000000    51.44000000
   H     55.62000000    48.79000000    51.80000000
   H     54.70000000    46.81000000    51.98000000
   H     55.28000000    46.58000000    49.00000000
   H     54.80000000    45.24000000    50.02000000
   H     56.39000000    44.59000000    51.94000000
   H     57.51000000    47.03000000    48.63000000
   H     58.66000000    44.53000000    52.79000000
   H     59.90000000    46.69000000    49.26000000
   H     61.38000000    45.90000000    50.72000000
   N     52.54000000    48.28000000    50.24000000
   C     51.13000000    48.53000000    50.01000000
   C     50.32000000    48.52000000    51.31000000
   O     49.93000000    49.58000000    51.77000000
   C     50.46000000    47.79000000    48.86000000
   C     51.35000000    47.91000000    47.63000000
   C     49.03000000    48.28000000    48.63000000
   C     51.45000000    49.25000000    46.90000000
   H     53.13000000    49.06000000    50.02000000
   H     51.15000000    49.61000000    49.82000000
   H     50.54000000    46.72000000    49.03000000
   H     50.90000000    47.26000000    46.88000000
   H     52.32000000    47.43000000    47.79000000
   H     48.35000000    47.87000000    49.37000000
   H     48.98000000    49.36000000    48.73000000
   H     48.71000000    47.92000000    47.65000000
   H     52.04000000    49.13000000    46.00000000
   H     50.45000000    49.64000000    46.69000000
   H     51.87000000    49.95000000    47.62000000
   N     49.95000000    47.35000000    51.83000000
   C     49.32000000    47.22000000    53.13000000
   C     47.91000000    47.78000000    53.20000000
   O     47.63000000    48.40000000    54.23000000
   C     49.32000000    45.79000000    53.66000000
   O     50.54000000    45.11000000    53.43000000
   H     50.21000000    46.55000000    51.27000000
   H     49.95000000    47.82000000    53.79000000
   H     48.55000000    45.19000000    53.17000000
   H     49.21000000    45.76000000    54.75000000
   H     50.34000000    44.24000000    53.77000000
   N     47.09000000    47.71000000    52.15000000
   C     45.79000000    48.33000000    52.01000000
   C     45.70000000    49.82000000    52.31000000
   O     44.60000000    50.35000000    52.45000000
   C     44.77000000    47.50000000    52.80000000
   H     47.44000000    47.21000000    51.35000000
   H     45.64000000    48.23000000    50.94000000
   H     45.01000000    47.51000000    53.87000000
   H     43.78000000    47.90000000    52.62000000
   H     44.80000000    46.48000000    52.43000000
   N     46.78000000    50.58000000    52.44000000
   C     46.81000000    52.03000000    52.34000000
   C     46.61000000    52.49000000    50.91000000
   O     46.99000000    51.97000000    49.86000000
   C     48.12000000    52.52000000    52.95000000
   H     47.69000000    50.13000000    52.43000000
   H     45.93000000    52.31000000    52.93000000
   H     48.91000000    52.40000000    52.21000000
   H     48.14000000    53.61000000    52.99000000
   H     48.33000000    52.03000000    53.90000000
   N     45.79000000    53.53000000    50.73000000
   C     45.55000000    54.55000000    49.72000000
   C     45.29000000    54.13000000    48.28000000
   O     45.08000000    55.00000000    47.44000000
   C     46.43000000    55.79000000    49.90000000
   C     47.91000000    55.64000000    49.57000000
   C     48.72000000    56.88000000    49.92000000
   O     48.33000000    57.99000000    49.49000000
   O     49.77000000    56.80000000    50.59000000
   H     45.43000000    53.79000000    51.64000000
   H     44.60000000    55.02000000    49.96000000
   H     46.41000000    56.04000000    50.96000000
   H     45.88000000    56.60000000    49.43000000
   H     47.76000000    55.61000000    48.49000000
   H     48.33000000    54.75000000    50.03000000
   N     45.14000000    52.85000000    47.95000000
   C     44.81000000    52.24000000    46.68000000
   H     43.97400000    52.77400000    46.22800000
   H     45.67400000    52.29000000    46.01700000
   H     44.53200000    51.19800000    46.83800000
   H     45.59000000    52.20000000    48.59000000
  Ca     51.18000000    58.44000000    52.12000000
   O     51.48000000    58.24000000    54.81000000
   H     52.20000000    57.81000000    55.28000000
   H     51.03000000    58.76000000    55.48000000
   O     50.20000000    59.65000000    50.11000000
   H     49.61000000    58.97000000    49.79000000
   H     50.13000000    60.36000000    49.47000000
   O     52.45000000    60.76000000    51.24000000
   H     52.26000000    60.24000000    50.46000000
   H     51.85000000    61.50000000    51.19000000
   O     48.91000000    57.82000000    53.42000000
   H     48.78000000    56.98000000    53.86000000
   H     48.02000000    58.15000000    53.26000000
   O     51.78000000    55.97000000    52.91000000
   H     50.97000000    55.75000000    53.37000000
   H     52.47000000    55.53000000    53.41000000
   O     49.65000000    60.55000000    53.02000000
   H     50.26000000    61.28000000    53.10000000
   H     48.93000000    60.76000000    53.61000000
   O     53.68000000    58.62000000    52.85000000
   H     54.35000000    57.94000000    52.77000000
   H     54.12000000    59.35000000    53.29000000

Ca 1.70



