%chk=loop3.cluster94.chk
%nprocshared=48
%mem=10GB
%nosave
#b3lyp/svp scf=(tight,noincore) Test 
#IOP(5/87=12) Density=Current Pop=(MK,readradii) iop(6/33=2) iop(6/42=6)

loop3.cluster94 

   0  1 
   C    105.00000000   -25.84000000    83.28000000
   C    103.58000000   -26.39000000    83.19000000
   O    102.70000000   -25.83000000    82.54000000
   H    105.65800000   -26.42700000    82.63900000
   H    105.00900000   -24.80000000    82.95300000
   H    105.34900000   -25.90100000    84.31100000
   N    103.36000000   -27.60000000    83.70000000
   C    102.16000000   -28.40000000    83.53000000
   C    101.62000000   -28.76000000    84.91000000
   O    102.37000000   -29.01000000    85.85000000
   C    102.69000000   -29.63000000    82.80000000
   C    101.54000000   -30.55000000    82.40000000
   O    101.34000000   -30.83000000    81.20000000
   O    100.78000000   -31.00000000    83.28000000
   H    104.13000000   -28.12000000    84.11000000
   H    101.40000000   -27.88000000    82.95000000
   H    103.42000000   -30.17000000    83.40000000
   H    103.19000000   -29.20000000    81.93000000
   N    100.29000000   -28.76000000    85.04000000
   C     99.63000000   -28.82000000    86.33000000
   C     99.30000000   -30.20000000    86.88000000
   O     99.07000000   -30.26000000    88.09000000
   C     98.39000000   -27.95000000    86.11000000
   C     98.46000000   -26.45000000    85.88000000
   C     99.24000000   -25.66000000    86.93000000
   C     99.09000000   -24.22000000    86.46000000
   N    100.03000000   -23.31000000    87.13000000
   H     99.75000000   -28.59000000    84.21000000
   H    100.25000000   -28.44000000    87.14000000
   H     97.73000000   -28.02000000    86.97000000
   H     97.89000000   -28.38000000    85.24000000
   H     97.48000000   -25.96000000    85.89000000
   H     98.82000000   -26.29000000    84.87000000
   H    100.27000000   -25.99000000    86.85000000
   H     98.82000000   -25.79000000    87.93000000
   H     98.07000000   -23.91000000    86.67000000
   H     99.20000000   -24.07000000    85.39000000
   H     99.85000000   -22.33000000    86.98000000
   H     99.83000000   -23.43000000    88.11000000
   H    101.00000000   -23.51000000    86.95000000
   N     99.27000000   -31.22000000    86.02000000
   C     99.26000000   -32.62000000    86.42000000
   C    100.44000000   -33.48000000    85.99000000
   O    100.62000000   -34.57000000    86.54000000
   C     97.93000000   -33.21000000    85.98000000
   C     97.58000000   -33.36000000    84.51000000
   O     96.43000000   -33.79000000    84.29000000
   O     98.46000000   -33.09000000    83.67000000
   H     99.63000000   -30.99000000    85.11000000
   H     99.28000000   -32.60000000    87.51000000
   H     97.08000000   -32.76000000    86.50000000
   H     97.93000000   -34.22000000    86.39000000
   N    101.13000000   -33.14000000    84.90000000
   C    102.20000000   -33.92000000    84.32000000
   C    101.69000000   -35.18000000    83.63000000
   O    102.51000000   -36.07000000    83.41000000
   H    100.97000000   -32.23000000    84.50000000
   H    102.81000000   -34.12000000    85.21000000
   H    102.62000000   -33.36000000    83.49000000
   N    100.39000000   -35.28000000    83.33000000
   C     99.93000000   -36.52000000    82.73000000
   C    100.43000000   -36.72000000    81.31000000
   O    100.04000000   -35.96000000    80.43000000
   C     98.41000000   -36.54000000    82.78000000
   C     97.75000000   -37.75000000    82.14000000
   N     97.24000000   -37.55000000    80.92000000
   O     97.80000000   -38.85000000    82.70000000
   H     99.76000000   -34.50000000    83.44000000
   H    100.32000000   -37.27000000    83.42000000
   H     98.00000000   -35.67000000    82.28000000
   H     98.01000000   -36.52000000    83.80000000
   H     97.19000000   -36.60000000    80.59000000
   H     96.87000000   -38.35000000    80.42000000
   N    101.22000000   -37.76000000    81.02000000
   C    101.74000000   -38.05000000    79.70000000
   C    100.90000000   -38.96000000    78.82000000
   O    101.12000000   -38.95000000    77.61000000
   H    101.40000000   -38.39000000    81.79000000
   H    102.70000000   -38.57000000    79.83000000
   H    101.95000000   -37.12000000    79.17000000
   N     99.95000000   -39.71000000    79.39000000
   C     99.01000000   -40.63000000    78.77000000
   C     97.81000000   -39.89000000    78.20000000
   O     96.86000000   -39.56000000    78.90000000
   C     98.68000000   -41.77000000    79.72000000
   C     97.90000000   -42.93000000    79.13000000
   C     96.55000000   -43.04000000    79.48000000
   C     98.44000000   -43.77000000    78.15000000
   C     95.75000000   -44.10000000    79.03000000
   C     97.64000000   -44.79000000    77.63000000
   C     96.33000000   -45.00000000    78.11000000
   O     95.54000000   -46.02000000    77.67000000
   H    100.18000000   -39.88000000    80.35000000
   H     99.55000000   -41.10000000    77.95000000
   H     98.19000000   -41.39000000    80.61000000
   H     99.62000000   -42.23000000    80.03000000
   H     96.07000000   -42.29000000    80.08000000
   H     99.37000000   -43.55000000    77.64000000
   H     94.73000000   -44.25000000    79.33000000
   H     98.06000000   -45.54000000    76.98000000
   H     95.97000000   -46.53000000    76.98000000
   N     97.92000000   -39.69000000    76.88000000
   C     97.05000000   -38.90000000    76.04000000
   C     95.59000000   -39.32000000    75.97000000
   O     94.98000000   -39.40000000    77.03000000
   C     97.28000000   -37.40000000    76.24000000
   C     97.24000000   -36.63000000    74.92000000
   C     98.52000000   -37.00000000    77.02000000
   C     97.05000000   -35.11000000    74.99000000
   H     98.85000000   -39.89000000    76.54000000
   H     97.37000000   -39.18000000    75.04000000
   H     96.49000000   -37.06000000    76.91000000
   H     96.50000000   -37.01000000    74.22000000
   H     98.21000000   -36.80000000    74.45000000
   H     98.57000000   -35.91000000    77.07000000
   H     98.47000000   -37.13000000    78.10000000
   H     99.41000000   -37.46000000    76.59000000
   H     97.63000000   -34.68000000    75.80000000
   H     97.15000000   -34.69000000    73.99000000
   H     96.01000000   -34.88000000    75.20000000
   N     95.06000000   -39.41000000    74.75000000
   C     93.64000000   -39.56000000    74.51000000
   C     93.25000000   -40.19000000    73.18000000
   O     92.34000000   -41.01000000    73.17000000
   C     93.09000000   -38.15000000    74.72000000
   O     93.74000000   -37.23000000    73.87000000
   H     95.61000000   -39.26000000    73.92000000
   H     93.22000000   -40.21000000    75.29000000
   H     93.27000000   -37.79000000    75.73000000
   H     92.03000000   -38.21000000    74.47000000
   H     93.35000000   -36.37000000    73.99000000
   N     93.89000000   -39.83000000    72.06000000
   C     93.59000000   -40.24000000    70.70000000
   C     92.13000000   -40.07000000    70.28000000
   O     91.48000000   -41.05000000    69.91000000
   C     94.28000000   -41.57000000    70.42000000
   H     94.55000000   -39.08000000    72.10000000
   H     94.13000000   -39.48000000    70.15000000
   H     95.27000000   -41.55000000    70.88000000
   H     93.71000000   -42.31000000    70.98000000
   H     94.31000000   -41.73000000    69.34000000
   N     91.49000000   -38.91000000    70.43000000
   C     92.15000000   -37.62000000    70.39000000
   C     92.46000000   -37.21000000    68.95000000
   O     91.62000000   -37.45000000    68.09000000
   C     91.24000000   -36.74000000    71.24000000
   H     90.50000000   -38.88000000    70.22000000
   H     93.04000000   -37.80000000    70.99000000
   H     90.22000000   -36.85000000    70.89000000
   H     91.26000000   -37.19000000    72.23000000
   H     91.53000000   -35.69000000    71.19000000
   N     93.66000000   -36.71000000    68.66000000
   C     94.77000000   -36.45000000    69.55000000
   C     96.09000000   -37.12000000    69.18000000
   O     96.84000000   -37.53000000    70.06000000
   C     94.94000000   -34.95000000    69.78000000
   C     95.51000000   -34.65000000    71.16000000
   C     95.16000000   -33.23000000    71.60000000
   O     94.25000000   -33.05000000    72.43000000
   O     95.80000000   -32.29000000    71.07000000
   H     93.89000000   -36.82000000    67.68000000
   H     94.64000000   -36.81000000    70.57000000
   H     93.94000000   -34.52000000    69.73000000
   H     95.41000000   -34.44000000    68.95000000
   H     96.57000000   -34.87000000    71.06000000
   H     95.20000000   -35.32000000    71.96000000
   N     96.35000000   -37.08000000    67.87000000
   C     97.56000000   -37.68000000    67.34000000
   H     98.37200000   -37.55300000    68.05600000
   H     97.39300000   -38.74300000    67.16600000
   H     97.82500000   -37.19500000    66.40100000
   H     95.77000000   -36.60000000    67.20000000
  Ca     98.78000000   -31.38300000    81.73000000
   O     99.28000000   -28.81300000    81.61000000
   H     99.60000000   -28.83300000    80.71000000
   H     98.88000000   -27.95300000    81.71000000
   O     97.29000000   -30.26300000    83.62000000
   H     96.82000000   -29.55300000    83.18000000
   H     96.99000000   -30.22300000    84.52000000
   O     96.80000000   -32.85300000    81.36000000
   H     96.40000000   -32.87300000    82.23000000
   H     96.57000000   -33.69300000    80.97000000
   O     99.54000000   -33.11300000    79.99000000
   H     99.27000000   -33.05300000    79.08000000
   H     99.83000000   -34.02300000    80.10000000
   O     96.77000000   -30.00300000    80.62000000
   H     95.81000000   -30.05300000    80.69000000
   H     96.92000000   -29.40300000    79.88000000
   O     98.96000000   -30.46300000    79.04000000
   H     98.27000000   -30.56300000    78.38000000
   H     99.78000000   -30.51300000    78.55000000

Ca 1.70



