%chk=loop1.cluster143.chk
%nprocshared=48
%mem=10GB
%nosave
#b3lyp/svp scf=(tight,noincore) Test 
#IOP(5/87=12) Density=Current Pop=(MK,readradii) iop(6/33=2) iop(6/42=6)

loop1.cluster143 

   0  1 
   C     76.05000000    62.14000000    34.06000000
   C     76.34000000    62.78000000    32.71000000
   O     76.16000000    62.20000000    31.64000000
   H     75.01400000    61.80200000    34.08600000
   H     76.71400000    61.28800000    34.20900000
   H     76.21300000    62.87100000    34.85200000
   N     76.87000000    64.01000000    32.68000000
   C     77.58000000    64.57000000    31.55000000
   C     76.85000000    64.60000000    30.22000000
   O     77.41000000    64.13000000    29.23000000
   C     78.98000000    63.97000000    31.45000000
   C     80.03000000    64.75000000    30.67000000
   O     80.93000000    64.06000000    30.15000000
   O     80.17000000    65.99000000    30.83000000
   H     76.86000000    64.56000000    33.53000000
   H     77.74000000    65.58000000    31.94000000
   H     78.97000000    62.96000000    31.04000000
   H     79.34000000    63.85000000    32.47000000
   N     75.63000000    65.13000000    30.27000000
   C     74.69000000    65.31000000    29.18000000
   C     75.26000000    65.94000000    27.92000000
   O     74.76000000    65.64000000    26.84000000
   C     73.65000000    66.25000000    29.79000000
   C     72.54000000    66.67000000    28.83000000
   C     71.42000000    67.41000000    29.56000000
   C     71.83000000    68.52000000    30.51000000
   N     72.49000000    69.59000000    29.75000000
   H     75.32000000    65.49000000    31.16000000
   H     74.21000000    64.36000000    28.96000000
   H     74.18000000    67.15000000    30.12000000
   H     73.27000000    65.63000000    30.60000000
   H     72.16000000    65.75000000    28.38000000
   H     72.94000000    67.25000000    28.00000000
   H     70.84000000    66.62000000    30.05000000
   H     70.70000000    67.87000000    28.89000000
   H     72.43000000    68.13000000    31.33000000
   H     70.86000000    68.86000000    30.85000000
   H     71.90000000    70.06000000    29.08000000
   H     72.89000000    70.30000000    30.36000000
   H     73.33000000    69.26000000    29.30000000
   N     76.37000000    66.69000000    28.00000000
   C     77.03000000    67.45000000    26.96000000
   C     78.50000000    67.11000000    26.79000000
   O     79.08000000    67.70000000    25.88000000
   C     76.65000000    68.93000000    26.93000000
   C     75.16000000    69.21000000    27.04000000
   O     74.71000000    69.29000000    28.20000000
   O     74.45000000    69.41000000    26.04000000
   H     76.77000000    66.77000000    28.93000000
   H     76.62000000    67.04000000    26.04000000
   H     77.03000000    69.37000000    26.01000000
   H     77.18000000    69.41000000    27.76000000
   N     79.00000000    66.05000000    27.44000000
   C     80.27000000    65.53000000    26.99000000
   C     81.37000000    66.56000000    27.24000000
   O     81.97000000    67.09000000    26.31000000
   H     78.35000000    65.59000000    28.05000000
   H     80.22000000    65.17000000    25.96000000
   H     80.48000000    64.63000000    27.57000000
   N     81.58000000    66.87000000    28.51000000
   C     82.47000000    67.88000000    29.06000000
   C     83.30000000    67.44000000    30.26000000
   O     84.37000000    67.99000000    30.53000000
   C     81.74000000    69.17000000    29.45000000
   C     80.76000000    69.74000000    28.44000000
   O     79.58000000    70.01000000    28.75000000
   O     81.26000000    70.01000000    27.32000000
   H     80.92000000    66.48000000    29.17000000
   H     83.15000000    68.25000000    28.30000000
   H     82.46000000    69.95000000    29.67000000
   H     81.15000000    69.01000000    30.36000000
   N     82.92000000    66.44000000    31.05000000
   C     83.57000000    65.92000000    32.24000000
   C     84.74000000    65.00000000    31.91000000
   O     85.00000000    64.39000000    30.88000000
   H     82.05000000    65.99000000    30.81000000
   H     82.77000000    65.39000000    32.76000000
   H     83.92000000    66.75000000    32.85000000
   N     85.60000000    64.96000000    32.93000000
   C     86.49000000    63.88000000    33.29000000
   C     87.76000000    64.08000000    32.49000000
   O     87.98000000    65.11000000    31.85000000
   C     86.66000000    63.76000000    34.81000000
   C     87.77000000    64.67000000    35.32000000
   O     85.47000000    64.06000000    35.50000000
   H     85.38000000    65.62000000    33.66000000
   H     85.96000000    62.98000000    32.96000000
   H     86.94000000    62.75000000    35.12000000
   H     84.88000000    63.50000000    34.98000000
   H     87.63000000    65.67000000    34.92000000
   H     87.87000000    64.77000000    36.40000000
   H     88.69000000    64.28000000    34.88000000
   N     88.59000000    63.03000000    32.50000000
   C     89.96000000    62.93000000    32.05000000
   C     90.30000000    61.58000000    31.44000000
   O     91.23000000    61.57000000    30.63000000
   C     90.96000000    63.42000000    33.09000000
   C     92.37000000    63.68000000    32.58000000
   C     90.91000000    62.51000000    34.31000000
   C     92.58000000    64.48000000    31.29000000
   H     88.30000000    62.34000000    33.18000000
   H     89.96000000    63.64000000    31.22000000
   H     90.65000000    64.42000000    33.41000000
   H     92.84000000    62.70000000    32.49000000
   H     92.88000000    64.23000000    33.37000000
   H     91.25000000    61.54000000    33.96000000
   H     91.58000000    62.82000000    35.11000000
   H     89.88000000    62.45000000    34.69000000
   H     92.27000000    65.51000000    31.45000000
   H     93.66000000    64.52000000    31.17000000
   H     92.25000000    63.96000000    30.39000000
   N     89.56000000    60.51000000    31.76000000
   C     89.77000000    59.24000000    31.10000000
   C     89.63000000    58.12000000    32.12000000
   O     88.58000000    57.88000000    32.71000000
   C     88.80000000    59.05000000    29.95000000
   C     88.78000000    60.08000000    28.82000000
   O     89.08000000    57.79000000    29.36000000
   H     88.78000000    60.62000000    32.38000000
   H     90.77000000    59.21000000    30.66000000
   H     87.79000000    59.02000000    30.37000000
   H     88.34000000    57.65000000    28.76000000
   H     88.29000000    59.68000000    27.93000000
   H     88.26000000    60.97000000    29.18000000
   H     89.80000000    60.39000000    28.60000000
   N     90.71000000    57.37000000    32.36000000
   C     90.82000000    56.28000000    33.30000000
   C     91.25000000    56.56000000    34.74000000
   O     91.13000000    55.68000000    35.58000000
   C     91.72000000    55.20000000    32.69000000
   C     93.04000000    55.73000000    32.14000000
   O     91.02000000    54.65000000    31.60000000
   H     91.51000000    57.42000000    31.74000000
   H     89.80000000    55.92000000    33.32000000
   H     91.88000000    54.42000000    33.43000000
   H     91.30000000    53.76000000    31.37000000
   H     92.95000000    56.42000000    31.30000000
   H     93.64000000    56.00000000    33.01000000
   H     93.57000000    54.88000000    31.72000000
   N     91.68000000    57.79000000    35.03000000
   C     91.67000000    58.33000000    36.37000000
   C     90.23000000    58.66000000    36.70000000
   O     89.39000000    58.82000000    35.81000000
   C     92.55000000    59.58000000    36.48000000
   C     94.02000000    59.16000000    36.49000000
   C     94.95000000    60.26000000    37.00000000
   C     96.42000000    60.06000000    36.63000000
   N     97.18000000    59.13000000    37.48000000
   H     91.74000000    58.39000000    34.22000000
   H     91.98000000    57.58000000    37.10000000
   H     92.26000000    60.03000000    37.43000000
   H     92.29000000    60.27000000    35.69000000
   H     94.23000000    58.85000000    35.47000000
   H     94.17000000    58.30000000    37.13000000
   H     94.85000000    60.23000000    38.09000000
   H     94.78000000    61.27000000    36.64000000
   H     96.83000000    61.07000000    36.57000000
   H     96.44000000    59.64000000    35.62000000
   H     96.96000000    59.08000000    38.46000000
   H     97.03000000    58.21000000    37.08000000
   H     98.15000000    59.36000000    37.33000000
   N     89.91000000    58.80000000    37.99000000
   C     88.67000000    59.37000000    38.47000000
   C     88.15000000    58.45000000    39.57000000
   O     88.92000000    57.97000000    40.40000000
   C     88.92000000    60.79000000    38.94000000
   C     89.27000000    61.87000000    37.92000000
   C     89.79000000    63.19000000    38.47000000
   O     89.02000000    63.88000000    39.16000000
   O     90.95000000    63.58000000    38.19000000
   H     90.63000000    58.70000000    38.69000000
   H     87.93000000    59.41000000    37.67000000
   H     89.65000000    60.83000000    39.76000000
   H     88.02000000    61.15000000    39.45000000
   H     88.43000000    62.12000000    37.26000000
   H     90.06000000    61.43000000    37.31000000
   N     86.88000000    58.07000000    39.71000000
   C     85.78000000    58.36000000    38.82000000
   H     84.96200000    58.80400000    39.38700000
   H     86.10900000    59.05800000    38.05000000
   H     85.43700000    57.43700000    38.35200000
   H     86.73000000    57.53000000    40.55000000
  Ca     81.12000000    69.12000000    24.81000000
   O     79.36000000    68.18000000    22.96000000
   H     78.89000000    67.48000000    23.41000000
   H     79.55000000    67.82000000    22.09000000
   O     79.22000000    70.85000000    24.30000000
   H     78.98000000    71.42000000    25.02000000
   H     79.08000000    71.39000000    23.51000000
   O     82.56000000    67.34000000    23.19000000
   H     82.34000000    66.41000000    23.24000000
   H     83.18000000    67.39000000    22.46000000
   O     83.77000000    69.77000000    25.10000000
   H     84.35000000    69.50000000    25.81000000
   H     84.37000000    70.09000000    24.42000000
   O     81.63000000    70.30000000    22.45000000
   H     81.14000000    70.95000000    21.94000000
   H     82.39000000    70.10000000    21.90000000

Ca 1.70



