%chk=loop3.cluster211.chk
%nprocshared=48
%mem=10GB
%nosave
#b3lyp/svp scf=(tight,noincore) Test 
#IOP(5/87=12) Density=Current Pop=(MK,readradii) iop(6/33=2) iop(6/42=6)

loop3.cluster211 

   0  1 
   C     81.91000000    52.75000000    29.47000000
   C     81.88000000    51.53000000    30.38000000
   O     80.84000000    51.22000000    30.96000000
   H     82.82700000    53.31200000    29.64700000
   H     81.87700000    52.42800000    28.42900000
   H     81.04900000    53.38400000    29.68300000
   N     82.99000000    50.80000000    30.50000000
   C     83.24000000    49.65000000    31.34000000
   C     84.66000000    49.59000000    31.88000000
   O     85.60000000    49.87000000    31.14000000
   C     83.06000000    48.40000000    30.48000000
   C     83.04000000    47.07000000    31.21000000
   O     81.94000000    46.54000000    31.48000000
   O     84.12000000    46.52000000    31.54000000
   H     83.76000000    51.09000000    29.92000000
   H     82.58000000    49.60000000    32.21000000
   H     83.90000000    48.38000000    29.79000000
   H     82.14000000    48.46000000    29.89000000
   N     84.79000000    49.23000000    33.16000000
   C     86.02000000    49.53000000    33.87000000
   C     87.10000000    48.52000000    33.51000000
   O     88.27000000    48.87000000    33.40000000
   C     85.71000000    49.37000000    35.35000000
   C     84.71000000    50.37000000    35.93000000
   C     84.81000000    50.38000000    37.45000000
   C     83.95000000    51.47000000    38.09000000
   N     82.63000000    51.62000000    37.46000000
   H     83.86000000    49.17000000    33.56000000
   H     86.36000000    50.54000000    33.62000000
   H     86.68000000    49.51000000    35.83000000
   H     85.33000000    48.36000000    35.49000000
   H     83.72000000    50.00000000    35.68000000
   H     84.93000000    51.37000000    35.56000000
   H     85.83000000    50.49000000    37.82000000
   H     84.48000000    49.39000000    37.78000000
   H     84.53000000    52.40000000    38.06000000
   H     83.89000000    51.27000000    39.16000000
   H     82.59000000    51.71000000    36.45000000
   H     82.01000000    50.86000000    37.71000000
   H     82.19000000    52.34000000    38.00000000
   N     86.71000000    47.30000000    33.13000000
   C     87.66000000    46.28000000    32.74000000
   C     87.87000000    46.11000000    31.24000000
   O     88.89000000    45.53000000    30.87000000
   C     87.40000000    44.93000000    33.41000000
   C     85.98000000    44.38000000    33.34000000
   O     85.62000000    43.79000000    32.30000000
   O     85.15000000    44.62000000    34.24000000
   H     85.74000000    47.04000000    33.04000000
   H     88.66000000    46.56000000    33.07000000
   H     87.44000000    45.05000000    34.49000000
   H     88.12000000    44.15000000    33.14000000
   N     86.85000000    46.50000000    30.48000000
   C     86.92000000    46.41000000    29.03000000
   C     86.07000000    45.35000000    28.33000000
   O     85.93000000    45.40000000    27.11000000
   H     85.98000000    46.85000000    30.85000000
   H     87.94000000    46.37000000    28.66000000
   H     86.44000000    47.29000000    28.62000000
   N     85.32000000    44.56000000    29.10000000
   C     84.42000000    43.56000000    28.55000000
   C     83.02000000    44.03000000    28.91000000
   O     82.76000000    44.14000000    30.10000000
   C     84.81000000    42.22000000    29.17000000
   C     83.78000000    41.15000000    28.88000000
   N     83.49000000    40.39000000    29.95000000
   O     83.18000000    41.02000000    27.82000000
   H     85.31000000    44.72000000    30.10000000
   H     84.44000000    43.55000000    27.46000000
   H     84.94000000    42.31000000    30.25000000
   H     85.78000000    41.91000000    28.78000000
   H     83.85000000    40.65000000    30.86000000
   H     82.87000000    39.60000000    29.88000000
   N     82.15000000    44.33000000    27.94000000
   C     80.93000000    45.06000000    28.22000000
   C     79.83000000    44.38000000    29.02000000
   O     78.91000000    45.01000000    29.54000000
   H     82.50000000    44.24000000    26.99000000
   H     80.45000000    45.40000000    27.31000000
   H     81.13000000    45.97000000    28.78000000
   N     80.04000000    43.09000000    29.31000000
   C     79.38000000    42.40000000    30.40000000
   C     79.76000000    42.91000000    31.78000000
   O     80.72000000    43.67000000    31.88000000
   C     79.60000000    40.89000000    30.30000000
   C     79.00000000    40.30000000    29.04000000
   C     79.66000000    40.24000000    27.81000000
   C     77.66000000    39.91000000    29.16000000
   C     78.99000000    39.78000000    26.67000000
   C     77.00000000    39.42000000    28.03000000
   C     77.63000000    39.42000000    26.77000000
   O     77.07000000    38.86000000    25.65000000
   H     80.90000000    42.66000000    29.00000000
   H     78.31000000    42.58000000    30.28000000
   H     79.12000000    40.36000000    31.12000000
   H     80.66000000    40.65000000    30.22000000
   H     80.68000000    40.61000000    27.74000000
   H     77.18000000    39.94000000    30.13000000
   H     79.56000000    39.77000000    25.76000000
   H     76.00000000    39.00000000    27.99000000
   H     76.19000000    38.53000000    25.86000000
   N     79.10000000    42.46000000    32.85000000
   C     79.25000000    42.94000000    34.21000000
   C     80.54000000    42.67000000    34.97000000
   O     81.65000000    43.07000000    34.60000000
   C     78.85000000    44.41000000    34.29000000
   C     78.90000000    45.00000000    35.70000000
   C     77.44000000    44.54000000    33.74000000
   C     78.63000000    46.50000000    35.61000000
   H     78.23000000    41.98000000    32.67000000
   H     78.46000000    42.43000000    34.75000000
   H     79.57000000    44.95000000    33.66000000
   H     79.92000000    45.01000000    36.09000000
   H     78.25000000    44.46000000    36.39000000
   H     77.29000000    44.43000000    32.66000000
   H     76.80000000    43.77000000    34.17000000
   H     77.06000000    45.54000000    33.95000000
   H     79.03000000    46.92000000    34.69000000
   H     77.56000000    46.69000000    35.62000000
   H     79.13000000    47.01000000    36.43000000
   N     80.46000000    41.84000000    36.02000000
   C     81.49000000    41.44000000    36.95000000
   C     81.08000000    40.28000000    37.85000000
   O     81.97000000    39.73000000    38.50000000
   C     81.86000000    42.69000000    37.74000000
   O     80.76000000    43.39000000    38.28000000
   H     79.49000000    41.61000000    36.17000000
   H     82.40000000    41.24000000    36.39000000
   H     82.38000000    43.38000000    37.07000000
   H     82.56000000    42.44000000    38.54000000
   H     81.14000000    44.12000000    38.79000000
   N     79.82000000    39.82000000    37.84000000
   C     79.13000000    38.83000000    38.64000000
   C     79.40000000    38.67000000    40.13000000
   O     79.77000000    37.59000000    40.59000000
   C     79.37000000    37.52000000    37.90000000
   H     79.22000000    40.34000000    37.22000000
   H     78.06000000    39.04000000    38.61000000
   H     80.41000000    37.27000000    37.69000000
   H     78.94000000    36.62000000    38.35000000
   H     78.80000000    37.65000000    36.99000000
   N     79.43000000    39.70000000    40.98000000
   C     79.18000000    41.10000000    40.75000000
   C     78.07000000    41.62000000    41.66000000
   O     77.82000000    41.00000000    42.69000000
   C     80.41000000    41.96000000    41.05000000
   H     79.61000000    39.46000000    41.95000000
   H     78.82000000    41.23000000    39.73000000
   H     80.21000000    43.01000000    40.85000000
   H     80.66000000    41.86000000    42.10000000
   H     81.17000000    41.60000000    40.35000000
   N     77.37000000    42.72000000    41.39000000
   C     77.24000000    43.65000000    40.29000000
   C     75.87000000    43.80000000    39.66000000
   O     75.68000000    43.85000000    38.45000000
   C     77.78000000    45.03000000    40.65000000
   C     77.74000000    45.98000000    39.46000000
   C     78.27000000    47.37000000    39.79000000
   O     79.50000000    47.61000000    39.79000000
   O     77.54000000    48.34000000    40.10000000
   H     76.81000000    42.84000000    42.23000000
   H     77.96000000    43.32000000    39.53000000
   H     78.84000000    44.85000000    40.83000000
   H     77.25000000    45.41000000    41.52000000
   H     76.74000000    46.15000000    39.06000000
   H     78.31000000    45.58000000    38.62000000
   N     74.88000000    43.89000000    40.56000000
   C     73.48000000    44.10000000    40.29000000
   H     72.94400000    44.22400000    41.23100000
   H     73.35700000    44.99600000    39.68200000
   H     73.07900000    43.23900000    39.75500000
   H     75.13000000    43.96000000    41.54000000
  Ca     83.01000000    44.43000000    32.77000000
   O     83.35000000    41.89000000    32.55000000
   H     83.82000000    41.67000000    33.36000000
   H     82.56000000    41.34000000    32.58000000
   O     82.23000000    46.16000000    34.53000000
   H     82.71000000    46.27000000    35.35000000
   H     81.97000000    47.05000000    34.28000000

Ca 1.70



