%chk=loop4.cluster6.chk
%nprocshared=48
%mem=10GB
%nosave
#b3lyp/svp scf=(tight,noincore) Test 
#IOP(5/87=12) Density=Current Pop=(MK,readradii) iop(6/33=2) iop(6/42=6)

loop4.cluster6 

   -3  1 
   C     95.53000000    80.68000000    46.53000000
   C     96.67000000    79.77000000    46.96000000
   O     96.80000000    78.62000000    46.55000000
   H     94.68500000    80.54700000    47.20600000
   H     95.86100000    81.71800000    46.56300000
   H     95.22600000    80.42700000    45.51400000
   N     97.67000000    80.44000000    47.54000000
   C     98.85000000    79.97000000    48.23000000
   C    100.02000000    79.41000000    47.43000000
   O    101.08000000    79.10000000    47.96000000
   C     98.48000000    79.24000000    49.52000000
   C     97.81000000    77.88000000    49.41000000
   O     96.81000000    77.63000000    50.12000000
   O     98.29000000    77.09000000    48.57000000
   H     97.51000000    81.42000000    47.74000000
   H     99.30000000    80.86000000    48.69000000
   H     97.89000000    79.91000000    50.14000000
   H     99.41000000    79.04000000    50.05000000
   N     99.78000000    79.25000000    46.12000000
   C    100.55000000    78.48000000    45.17000000
   C    100.31000000    76.98000000    45.20000000
   O     99.30000000    76.46000000    45.67000000
   C    100.17000000    78.94000000    43.76000000
   C    100.96000000    80.23000000    43.56000000
   C     98.66000000    79.13000000    43.66000000
   C    100.85000000    80.72000000    42.12000000
   H     98.95000000    79.69000000    45.75000000
   H    101.59000000    78.71000000    45.37000000
   H    100.60000000    78.21000000    43.08000000
   H    102.01000000    79.97000000    43.65000000
   H    100.63000000    81.00000000    44.26000000
   H     98.40000000    79.25000000    42.61000000
   H     98.13000000    78.28000000    44.09000000
   H     98.39000000    80.08000000    44.13000000
   H    101.06000000    79.91000000    41.43000000
   H     99.83000000    81.07000000    41.96000000
   H    101.59000000    81.52000000    42.14000000
   N    101.41000000    76.23000000    45.08000000
   C    101.54000000    74.81000000    45.31000000
   C    101.30000000    74.34000000    46.74000000
   O    101.62000000    75.05000000    47.69000000
   C    102.86000000    74.26000000    44.78000000
   C    103.99000000    75.17000000    45.24000000
   O    104.19000000    76.20000000    44.55000000
   O    104.71000000    74.87000000    46.22000000
   H    102.22000000    76.68000000    44.67000000
   H    100.75000000    74.36000000    44.71000000
   H    102.82000000    74.21000000    43.70000000
   H    103.00000000    73.25000000    45.17000000
   N    100.64000000    73.19000000    46.89000000
   C    100.12000000    72.33000000    45.85000000
   C     98.68000000    72.66000000    45.48000000
   O     98.11000000    73.64000000    45.96000000
   H    100.19000000    73.04000000    47.78000000
   H    100.10000000    71.33000000    46.29000000
   H    100.74000000    72.27000000    44.96000000
   N     98.06000000    71.88000000    44.60000000
   C     98.65000000    70.94000000    43.67000000
   C     97.86000000    71.10000000    42.38000000
   O     96.68000000    70.74000000    42.41000000
   C     98.59000000    69.53000000    44.26000000
   C     99.12000000    68.39000000    43.41000000
   O     99.76000000    68.70000000    42.39000000
   O     99.08000000    67.22000000    43.87000000
   H     97.09000000    72.06000000    44.41000000
   H     99.69000000    71.21000000    43.52000000
   H     97.61000000    69.19000000    44.57000000
   H     99.33000000    69.53000000    45.06000000
   N     98.37000000    71.65000000    41.27000000
   C     99.68000000    72.22000000    41.06000000
   C    100.12000000    72.56000000    39.64000000
   O    101.17000000    72.01000000    39.32000000
   H     97.84000000    71.33000000    40.47000000
   H    100.44000000    71.56000000    41.48000000
   H     99.90000000    73.04000000    41.75000000
   N     99.33000000    73.36000000    38.92000000
   C     99.58000000    73.72000000    37.54000000
   C     99.35000000    75.19000000    37.24000000
   O     99.09000000    75.57000000    36.10000000
   C     98.69000000    72.78000000    36.72000000
   C     99.11000000    71.32000000    36.62000000
   C     98.09000000    70.64000000    35.71000000
   N     97.09000000    70.03000000    36.34000000
   O     98.15000000    70.73000000    34.48000000
   H     98.48000000    73.69000000    39.36000000
   H    100.62000000    73.48000000    37.29000000
   H     98.56000000    73.16000000    35.71000000
   H     97.72000000    72.83000000    37.20000000
   H     99.03000000    70.88000000    37.62000000
   H    100.10000000    71.22000000    36.18000000
   H     97.13000000    70.05000000    37.35000000
   H     96.32000000    69.66000000    35.81000000
   N     99.48000000    76.12000000    38.19000000
   C     99.28000000    77.54000000    37.97000000
   C     97.88000000    77.98000000    38.39000000
   O     97.49000000    77.75000000    39.53000000
   C    100.22000000    78.45000000    38.76000000
   C     99.94000000    79.91000000    38.42000000
   C    101.66000000    78.04000000    38.49000000
   H     99.55000000    75.94000000    39.18000000
   H     99.55000000    77.80000000    36.95000000
   H     99.96000000    78.31000000    39.81000000
   H    100.67000000    80.56000000    38.91000000
   H    100.03000000    80.06000000    37.34000000
   H     98.97000000    80.29000000    38.75000000
   H    102.32000000    78.65000000    39.10000000
   H    101.88000000    77.02000000    38.83000000
   H    101.88000000    78.12000000    37.43000000
   N     97.20000000    78.69000000    37.49000000
   C     95.80000000    79.05000000    37.65000000
   C     94.97000000    77.78000000    37.55000000
   O     94.04000000    77.60000000    38.33000000
   C     95.48000000    80.12000000    36.61000000
   C     94.08000000    80.69000000    36.80000000
   N     93.26000000    80.57000000    35.75000000
   O     93.72000000    81.16000000    37.88000000
   H     97.58000000    78.64000000    36.56000000
   H     95.57000000    79.54000000    38.59000000
   H     95.72000000    79.83000000    35.59000000
   H     96.09000000    81.00000000    36.82000000
   H     93.58000000    80.07000000    34.94000000
   H     92.31000000    80.92000000    35.83000000
   N     95.26000000    76.87000000    36.62000000
   C     94.68000000    75.55000000    36.76000000
   C     94.89000000    74.91000000    38.13000000
   O     95.82000000    75.20000000    38.87000000
   C     95.33000000    74.62000000    35.74000000
   C     94.77000000    74.66000000    34.34000000
   C     95.61000000    75.30000000    33.42000000
   C     93.59000000    74.01000000    33.97000000
   C     95.22000000    75.37000000    32.08000000
   C     93.25000000    73.99000000    32.62000000
   C     94.08000000    74.65000000    31.69000000
   O     93.83000000    74.67000000    30.35000000
   H     95.93000000    77.04000000    35.89000000
   H     93.63000000    75.57000000    36.47000000
   H     95.29000000    73.56000000    35.98000000
   H     96.40000000    74.83000000    35.72000000
   H     96.52000000    75.79000000    33.76000000
   H     92.93000000    73.68000000    34.76000000
   H     95.90000000    75.86000000    31.39000000
   H     92.37000000    73.49000000    32.24000000
   H     94.35000000    75.20000000    29.74000000
   N     94.02000000    73.96000000    38.48000000
   C     93.85000000    73.39000000    39.80000000
   C     93.62000000    74.33000000    40.98000000
   O     93.18000000    73.82000000    42.00000000
   C     94.89000000    72.31000000    40.09000000
   C     94.89000000    71.30000000    38.94000000
   C     95.85000000    70.16000000    39.24000000
   O     95.41000000    69.01000000    39.48000000
   O     97.09000000    70.24000000    39.14000000
   H     93.34000000    73.73000000    37.77000000
   H     92.88000000    72.90000000    39.79000000
   H     94.58000000    71.69000000    40.93000000
   H     95.90000000    72.68000000    40.27000000
   H     95.10000000    71.78000000    37.99000000
   H     93.87000000    70.92000000    38.86000000
   N     93.86000000    75.64000000    40.88000000
   C     93.27000000    76.60000000    41.79000000
   C     91.95000000    77.20000000    41.32000000
   O     91.29000000    77.73000000    42.20000000
   C     94.24000000    77.69000000    42.21000000
   C     95.67000000    77.37000000    42.64000000
   C     95.73000000    76.63000000    43.97000000
   O     96.82000000    76.08000000    44.24000000
   O     94.84000000    76.61000000    44.84000000
   H     94.42000000    76.04000000    40.13000000
   H     92.92000000    76.05000000    42.67000000
   H     93.75000000    78.34000000    42.95000000
   H     94.43000000    78.33000000    41.35000000
   H     96.18000000    78.31000000    42.81000000
   H     96.14000000    76.84000000    41.81000000
   N     91.64000000    77.33000000    40.03000000
   C     90.33000000    77.80000000    39.60000000
   H     89.63700000    77.76200000    40.44000000
   H     90.41100000    78.82700000    39.24300000
   H     89.96100000    77.16300000    38.79600000
   H     92.38000000    77.02000000    39.42000000
  Ca     96.87000000    76.03000000    46.79000000
   O     96.85000000    74.38000000    48.91000000
   H     97.34000000    73.57000000    49.03000000
   H     96.46000000    74.55000000    49.77000000
   O     94.87000000    76.81000000    48.44000000
   H     95.23000000    77.26000000    49.21000000
   H     94.14000000    76.29000000    48.79000000
   O     94.72000000    73.58000000    46.30000000
   H     93.98000000    74.04000000    45.90000000
   H     95.17000000    73.17000000    45.57000000

Ca 1.70



