%chk=loop1.cluster108.chk
%nprocshared=48
%mem=10GB
%nosave
#b3lyp/svp scf=(tight,noincore) Test 
#IOP(5/87=12) Density=Current Pop=(MK,readradii) iop(6/33=2) iop(6/42=6)

loop1.cluster108 

   0  1 
   C     42.90000000    52.67000000    11.40000000
   C     42.98000000    52.28000000     9.93000000
   O     42.00000000    52.02000000     9.24000000
   H     41.88100000    52.97400000    11.64000000
   H     43.17900000    51.81700000    12.01900000
   H     43.58100000    53.49900000    11.59400000
   N     44.20000000    52.40000000     9.39000000
   C     44.51000000    52.47000000     7.98000000
   C     43.91000000    53.75000000     7.42000000
   O     44.43000000    54.84000000     7.62000000
   C     44.25000000    51.18000000     7.20000000
   C     45.08000000    49.97000000     7.58000000
   O     46.13000000    50.10000000     8.25000000
   O     44.63000000    48.82000000     7.40000000
   H     45.02000000    52.62000000     9.94000000
   H     45.59000000    52.58000000     7.85000000
   H     44.24000000    51.28000000     6.12000000
   H     43.23000000    50.90000000     7.46000000
   N     42.85000000    53.56000000     6.63000000
   C     42.12000000    54.52000000     5.83000000
   C     42.80000000    55.34000000     4.73000000
   O     42.51000000    55.24000000     3.54000000
   C     41.38000000    55.45000000     6.78000000
   C     40.18000000    56.12000000     6.12000000
   C     39.51000000    57.05000000     7.13000000
   C     38.22000000    57.73000000     6.70000000
   N     38.38000000    58.77000000     5.66000000
   H     42.60000000    52.61000000     6.41000000
   H     41.53000000    53.86000000     5.20000000
   H     42.06000000    56.23000000     7.10000000
   H     40.97000000    54.89000000     7.63000000
   H     39.45000000    55.38000000     5.78000000
   H     40.44000000    56.64000000     5.20000000
   H     40.22000000    57.75000000     7.57000000
   H     39.08000000    56.41000000     7.90000000
   H     37.95000000    58.20000000     7.65000000
   H     37.45000000    56.99000000     6.50000000
   H     37.62000000    59.42000000     5.61000000
   H     39.05000000    59.48000000     5.91000000
   H     38.51000000    58.39000000     4.73000000
   N     43.82000000    56.09000000     5.14000000
   C     44.62000000    57.02000000     4.37000000
   C     46.06000000    57.13000000     4.86000000
   O     46.97000000    57.58000000     4.17000000
   C     43.83000000    58.33000000     4.37000000
   C     44.46000000    59.39000000     3.48000000
   O     44.17000000    60.59000000     3.68000000
   O     45.26000000    59.08000000     2.57000000
   H     44.01000000    56.10000000     6.14000000
   H     44.61000000    56.54000000     3.39000000
   H     43.79000000    58.79000000     5.36000000
   H     42.76000000    58.22000000     4.22000000
   N     46.34000000    56.73000000     6.10000000
   C     47.67000000    56.73000000     6.69000000
   C     48.41000000    55.44000000     6.36000000
   O     47.83000000    54.36000000     6.38000000
   H     45.59000000    56.31000000     6.63000000
   H     47.52000000    56.77000000     7.77000000
   H     48.24000000    57.59000000     6.33000000
   N     49.69000000    55.57000000     6.01000000
   C     50.32000000    54.53000000     5.22000000
   C     51.82000000    54.46000000     5.47000000
   O     52.42000000    55.49000000     5.79000000
   C     50.07000000    54.63000000     3.72000000
   C     50.25000000    56.05000000     3.20000000
   O     49.37000000    56.51000000     2.45000000
   O     51.32000000    56.67000000     3.40000000
   H     50.14000000    56.48000000     6.07000000
   H     49.99000000    53.55000000     5.56000000
   H     48.99000000    54.43000000     3.67000000
   H     50.61000000    53.90000000     3.12000000
   N     52.48000000    53.30000000     5.43000000
   C     53.91000000    53.20000000     5.68000000
   C     54.32000000    53.17000000     7.14000000
   O     55.50000000    52.95000000     7.39000000
   H     52.11000000    52.37000000     5.30000000
   H     54.44000000    53.99000000     5.16000000
   H     54.28000000    52.20000000     5.43000000
   N     53.38000000    53.27000000     8.09000000
   C     53.49000000    53.35000000     9.54000000
   C     53.53000000    54.79000000    10.01000000
   O     52.88000000    55.69000000     9.49000000
   C     52.47000000    52.44000000    10.20000000
   C     52.46000000    52.24000000    11.72000000
   O     51.21000000    52.94000000     9.80000000
   H     52.40000000    53.29000000     7.86000000
   H     54.48000000    52.90000000     9.68000000
   H     52.63000000    51.45000000     9.77000000
   H     50.57000000    52.58000000    10.43000000
   H     53.49000000    52.19000000    12.08000000
   H     51.99000000    53.08000000    12.22000000
   H     51.99000000    51.32000000    12.08000000
   N     54.39000000    55.03000000    11.01000000
   C     54.63000000    56.36000000    11.53000000
   C     56.05000000    56.86000000    11.72000000
   O     56.26000000    58.03000000    12.07000000
   C     53.84000000    56.68000000    12.79000000
   C     54.43000000    56.16000000    14.10000000
   C     52.33000000    56.44000000    12.67000000
   C     54.84000000    54.70000000    14.07000000
   H     55.08000000    54.31000000    11.15000000
   H     54.22000000    57.05000000    10.79000000
   H     53.93000000    57.76000000    12.95000000
   H     53.70000000    56.29000000    14.90000000
   H     55.35000000    56.72000000    14.27000000
   H     52.18000000    55.38000000    12.51000000
   H     51.84000000    56.77000000    13.59000000
   H     52.00000000    57.12000000    11.88000000
   H     55.74000000    54.68000000    13.45000000
   H     54.96000000    54.38000000    15.11000000
   H     54.13000000    53.96000000    13.69000000
   N     57.05000000    56.04000000    11.40000000
   C     58.42000000    56.35000000    11.75000000
   C     58.74000000    56.34000000    13.24000000
   O     58.45000000    55.48000000    14.06000000
   C     59.32000000    55.37000000    11.00000000
   C     58.96000000    55.14000000     9.54000000
   O     60.67000000    55.72000000    11.19000000
   H     56.85000000    55.08000000    11.15000000
   H     58.62000000    57.31000000    11.27000000
   H     59.21000000    54.38000000    11.44000000
   H     61.17000000    54.90000000    11.16000000
   H     59.66000000    54.41000000     9.13000000
   H     58.00000000    54.62000000     9.49000000
   H     59.12000000    56.01000000     8.91000000
   N     59.57000000    57.34000000    13.57000000
   C     60.32000000    57.38000000    14.81000000
   C     59.51000000    57.52000000    16.09000000
   O     59.97000000    57.09000000    17.14000000
   C     61.46000000    58.38000000    14.63000000
   C     62.50000000    58.42000000    15.75000000
   O     60.96000000    59.69000000    14.52000000
   H     59.89000000    57.88000000    12.79000000
   H     60.81000000    56.43000000    15.05000000
   H     62.12000000    58.04000000    13.83000000
   H     60.52000000    59.72000000    13.67000000
   H     61.94000000    58.71000000    16.63000000
   H     62.93000000    57.43000000    15.91000000
   H     63.22000000    59.23000000    15.61000000
   N     58.34000000    58.17000000    15.98000000
   C     57.57000000    58.72000000    17.08000000
   C     56.15000000    58.85000000    16.57000000
   O     55.92000000    58.91000000    15.36000000
   C     58.09000000    60.13000000    17.39000000
   C     58.05000000    61.16000000    16.26000000
   C     58.75000000    62.42000000    16.74000000
   C     60.27000000    62.46000000    16.93000000
   N     61.04000000    62.44000000    15.67000000
   H     58.01000000    58.44000000    15.07000000
   H     57.63000000    58.13000000    17.99000000
   H     59.10000000    59.99000000    17.76000000
   H     57.54000000    60.51000000    18.25000000
   H     57.01000000    61.33000000    15.99000000
   H     58.63000000    60.82000000    15.40000000
   H     58.40000000    62.76000000    17.72000000
   H     58.52000000    63.20000000    16.01000000
   H     60.63000000    61.67000000    17.58000000
   H     60.53000000    63.39000000    17.44000000
   H     60.80000000    61.72000000    15.00000000
   H     60.79000000    63.26000000    15.15000000
   H     62.04000000    62.38000000    15.78000000
   N     55.24000000    58.86000000    17.55000000
   C     53.82000000    59.01000000    17.31000000
   C     53.09000000    57.69000000    17.53000000
   O     52.44000000    57.17000000    16.63000000
   C     53.27000000    60.13000000    18.17000000
   C     53.71000000    61.52000000    17.70000000
   C     53.14000000    62.67000000    18.52000000
   O     52.53000000    63.57000000    17.91000000
   O     53.27000000    62.61000000    19.76000000
   H     55.59000000    58.72000000    18.49000000
   H     53.68000000    59.21000000    16.25000000
   H     53.67000000    60.00000000    19.17000000
   H     52.19000000    60.06000000    18.31000000
   H     53.26000000    61.48000000    16.71000000
   H     54.79000000    61.54000000    17.56000000
   N     53.01000000    56.98000000    18.66000000
   C     53.32000000    57.36000000    20.02000000
   H     54.13100000    58.08800000    20.01700000
   H     52.43800000    57.80100000    20.48500000
   H     53.62600000    56.47800000    20.58300000
   H     52.42000000    56.17000000    18.54000000
  Ca     47.62000000    58.43000000     1.72000000
   O     47.66000000    60.79000000     0.44000000
   H     47.07000000    61.47000000     0.12000000
   H     48.52000000    61.22000000     0.48000000
   O     50.09000000    59.04000000     2.44000000
   H     50.57000000    59.40000000     3.19000000
   H     50.38000000    58.13000000     2.37000000
   O     48.54000000    58.02000000    -0.75100000
   H     49.18000000    57.36000000    -1.00100000
   H     48.66000000    58.72000000    -1.38100000
   O     45.86000000    57.84000000    -0.40100000
   H     46.20000000    57.90000000    -1.29100000
   H     45.22000000    57.13000000    -0.44100000
   O     47.39000000    60.39000000     3.83000000
   H     47.34000000    60.46000000     4.79000000
   H     46.49000000    60.51000000     3.54000000

Ca 1.70



