%chk=loop1.cluster109.chk
%nprocshared=48
%mem=10GB
%nosave
#b3lyp/svp scf=(tight,noincore) Test 
#IOP(5/87=12) Density=Current Pop=(MK,readradii) iop(6/33=2) iop(6/42=6)

loop1.cluster109 

   0  1 
   C     77.98000000    66.68000000    17.79000000
   C     79.15000000    67.57000000    17.38000000
   O     79.51000000    67.62000000    16.21000000
   H     77.11800000    66.90200000    17.16200000
   H     78.25800000    65.63300000    17.66700000
   H     77.72700000    66.86900000    18.83300000
   N     79.64000000    68.39000000    18.30000000
   C     80.73000000    69.32000000    18.05000000
   C     81.97000000    68.63000000    17.51000000
   O     82.30000000    67.54000000    17.96000000
   C     80.94000000    70.09000000    19.35000000
   C     82.05000000    71.12000000    19.24000000
   O     82.92000000    71.07000000    20.15000000
   O     82.24000000    71.93000000    18.31000000
   H     79.30000000    68.31000000    19.25000000
   H     80.55000000    70.00000000    17.22000000
   H     81.10000000    69.42000000    20.20000000
   H     80.02000000    70.64000000    19.55000000
   N     82.65000000    69.33000000    16.59000000
   C     83.98000000    68.95000000    16.18000000
   C     85.04000000    70.02000000    16.41000000
   O     86.08000000    69.89000000    15.76000000
   C     83.87000000    68.65000000    14.68000000
   C     82.88000000    67.53000000    14.39000000
   C     83.25000000    66.16000000    14.96000000
   C     82.01000000    65.28000000    14.75000000
   N     81.11000000    65.24000000    15.91000000
   H     82.25000000    70.21000000    16.31000000
   H     84.38000000    68.04000000    16.63000000
   H     84.83000000    68.41000000    14.21000000
   H     83.44000000    69.51000000    14.18000000
   H     82.78000000    67.45000000    13.31000000
   H     81.90000000    67.80000000    14.79000000
   H     83.51000000    66.11000000    16.01000000
   H     84.04000000    65.82000000    14.29000000
   H     82.39000000    64.27000000    14.62000000
   H     81.54000000    65.50000000    13.79000000
   H     81.62000000    64.89000000    16.70000000
   H     80.68000000    66.13000000    16.11000000
   H     80.38000000    64.55000000    15.79000000
   N     84.79000000    71.09000000    17.17000000
   C     85.71000000    72.19000000    17.32000000
   C     86.17000000    72.50000000    18.74000000
   O     87.19000000    73.13000000    18.98000000
   C     85.19000000    73.46000000    16.66000000
   C     84.62000000    73.37000000    15.25000000
   O     85.38000000    73.11000000    14.29000000
   O     83.42000000    73.70000000    15.10000000
   H     83.89000000    71.26000000    17.61000000
   H     86.64000000    71.91000000    16.82000000
   H     86.03000000    74.15000000    16.68000000
   H     84.37000000    73.83000000    17.27000000
   N     85.45000000    72.02000000    19.76000000
   C     85.62000000    72.32000000    21.17000000
   C     85.29000000    73.78000000    21.45000000
   O     85.79000000    74.34000000    22.42000000
   H     84.59000000    71.54000000    19.54000000
   H     86.62000000    72.03000000    21.47000000
   H     84.91000000    71.73000000    21.74000000
   N     84.46000000    74.48000000    20.68000000
   C     84.09000000    75.85000000    20.97000000
   C     82.74000000    75.94000000    21.68000000
   O     82.33000000    77.06000000    21.99000000
   C     84.11000000    76.62000000    19.65000000
   C     83.33000000    75.97000000    18.52000000
   O     82.44000000    75.11000000    18.71000000
   O     83.67000000    76.25000000    17.35000000
   H     84.06000000    73.95000000    19.92000000
   H     84.82000000    76.43000000    21.54000000
   H     85.14000000    76.83000000    19.35000000
   H     83.74000000    77.63000000    19.78000000
   N     82.05000000    74.84000000    21.97000000
   C     80.74000000    74.80000000    22.59000000
   C     79.64000000    75.37000000    21.71000000
   O     78.59000000    75.61000000    22.30000000
   H     82.42000000    73.95000000    21.65000000
   H     80.69000000    75.27000000    23.57000000
   H     80.55000000    73.78000000    22.92000000
   N     79.78000000    75.46000000    20.38000000
   C     78.67000000    75.64000000    19.47000000
   C     78.42000000    74.39000000    18.64000000
   O     79.38000000    73.65000000    18.39000000
   C     78.93000000    76.78000000    18.50000000
   C     79.09000000    78.15000000    19.17000000
   O     80.13000000    76.58000000    17.79000000
   H     80.64000000    75.24000000    19.89000000
   H     77.76000000    75.89000000    20.01000000
   H     78.15000000    76.89000000    17.74000000
   H     80.23000000    77.42000000    17.33000000
   H     78.07000000    78.41000000    19.47000000
   H     79.73000000    78.11000000    20.05000000
   H     79.45000000    78.93000000    18.50000000
   N     77.18000000    74.15000000    18.23000000
   C     76.74000000    73.26000000    17.17000000
   C     76.10000000    74.07000000    16.05000000
   O     75.05000000    74.69000000    16.18000000
   C     75.89000000    72.09000000    17.66000000
   C     76.66000000    71.18000000    18.61000000
   C     75.21000000    71.25000000    16.59000000
   C     75.71000000    70.61000000    19.66000000
   H     76.52000000    74.85000000    18.53000000
   H     77.64000000    72.80000000    16.77000000
   H     75.01000000    72.58000000    18.08000000
   H     77.35000000    71.72000000    19.25000000
   H     77.30000000    70.41000000    18.19000000
   H     74.67000000    71.97000000    15.96000000
   H     75.97000000    70.83000000    15.93000000
   H     74.50000000    70.50000000    16.95000000
   H     75.00000000    69.96000000    19.15000000
   H     76.21000000    69.99000000    20.40000000
   H     75.14000000    71.47000000    20.02000000
   N     76.75000000    74.04000000    14.88000000
   C     76.31000000    74.63000000    13.63000000
   C     75.26000000    73.77000000    12.94000000
   O     75.05000000    72.63000000    13.33000000
   C     77.50000000    74.76000000    12.68000000
   C     78.54000000    75.76000000    13.18000000
   O     78.20000000    73.58000000    12.36000000
   H     77.59000000    73.49000000    14.93000000
   H     75.68000000    75.52000000    13.72000000
   H     77.11000000    75.18000000    11.75000000
   H     78.93000000    73.85000000    11.80000000
   H     78.27000000    76.79000000    12.94000000
   H     78.74000000    75.66000000    14.25000000
   H     79.55000000    75.54000000    12.84000000
   N     74.55000000    74.33000000    11.95000000
   C     73.71000000    73.72000000    10.94000000
   C     74.46000000    72.59000000    10.26000000
   O     73.86000000    71.57000000     9.94000000
   C     73.20000000    74.73000000     9.92000000
   C     72.11000000    74.13000000     9.02000000
   O     72.53000000    75.83000000    10.48000000
   H     74.69000000    75.30000000    11.70000000
   H     72.89000000    73.19000000    11.43000000
   H     74.04000000    75.09000000     9.32000000
   H     71.69000000    75.76000000    10.02000000
   H     71.53000000    74.80000000     8.39000000
   H     72.58000000    73.39000000     8.37000000
   H     71.40000000    73.64000000     9.69000000
   N     75.77000000    72.73000000    10.02000000
   C     76.67000000    71.78000000     9.41000000
   C     76.84000000    70.58000000    10.33000000
   O     76.77000000    69.41000000     9.95000000
   C     78.04000000    72.35000000     9.05000000
   C     79.03000000    71.31000000     8.53000000
   C     78.63000000    70.54000000     7.28000000
   C     79.83000000    69.76000000     6.73000000
   N     79.56000000    69.19000000     5.40000000
   H     76.13000000    73.64000000    10.28000000
   H     76.18000000    71.47000000     8.49000000
   H     78.47000000    72.73000000     9.98000000
   H     77.94000000    73.08000000     8.25000000
   H     79.38000000    70.74000000     9.38000000
   H     79.96000000    71.82000000     8.26000000
   H     78.18000000    71.14000000     6.49000000
   H     77.84000000    69.85000000     7.60000000
   H     79.98000000    68.93000000     7.42000000
   H     80.71000000    70.40000000     6.73000000
   H     79.06000000    69.81000000     4.78000000
   H     80.41000000    68.87000000     4.95000000
   H     78.96000000    68.38000000     5.39000000
   N     77.20000000    70.82000000    11.59000000
   C     77.54000000    69.84000000    12.61000000
   C     76.31000000    69.11000000    13.14000000
   O     76.37000000    67.92000000    13.45000000
   C     78.20000000    70.57000000    13.78000000
   C     79.66000000    70.96000000    13.57000000
   C     80.19000000    71.72000000    14.77000000
   O     79.54000000    72.61000000    15.36000000
   O     81.40000000    71.61000000    15.06000000
   H     77.35000000    71.76000000    11.93000000
   H     78.19000000    69.12000000    12.14000000
   H     78.23000000    69.89000000    14.64000000
   H     77.71000000    71.50000000    14.05000000
   H     79.73000000    71.60000000    12.69000000
   H     80.30000000    70.09000000    13.43000000
   N     75.18000000    69.81000000    13.24000000
   C     73.88000000    69.24000000    13.52000000
   H     73.15200000    69.62900000    12.80800000
   H     73.93100000    68.15500000    13.43000000
   H     73.57600000    69.50700000    14.53200000
   H     75.26000000    70.78000000    12.95000000
  Ca     81.38000000    73.80000000    16.69000000
   O     81.16000000    75.88000000    14.87000000
   H     80.98000000    76.81000000    14.73000000
   H     81.95000000    75.71000000    14.36000000

Ca 1.70



