%chk=loop1.cluster99.chk
%nprocshared=48
%mem=10GB
%nosave
#b3lyp/svp scf=(tight,noincore) Test 
#IOP(5/87=12) Density=Current Pop=(MK,readradii) iop(6/33=2) iop(6/42=6)

loop1.cluster99 

   0  1 
   C     39.82000000     0.12000000    36.12000000
   C     39.33000000    -1.32000000    36.14000000
   O     39.75000000    -2.06000000    35.26000000
   H     40.78100000     0.16900000    35.60800000
   H     39.09700000     0.74300000    35.59400000
   H     39.93500000     0.48000000    37.14300000
   N     38.47000000    -1.72000000    37.08000000
   C     38.08000000    -3.11000000    37.21000000
   C     36.57000000    -3.21000000    37.31000000
   O     36.04000000    -3.70000000    38.31000000
   C     38.77000000    -3.79000000    38.40000000
   C     38.44000000    -3.13000000    39.73000000
   O     38.20000000    -3.92000000    40.66000000
   O     38.65000000    -1.92000000    39.94000000
   H     37.94000000    -1.10000000    37.67000000
   H     38.35000000    -3.75000000    36.37000000
   H     39.81000000    -3.56000000    38.17000000
   H     38.47000000    -4.83000000    38.30000000
   N     35.85000000    -2.86000000    36.24000000
   C     34.41000000    -3.04000000    36.11000000
   C     34.05000000    -3.63000000    34.76000000
   O     34.39000000    -2.99000000    33.77000000
   C     33.58000000    -1.78000000    36.29000000
   C     33.81000000    -1.00000000    37.59000000
   C     32.73000000     0.05000000    37.84000000
   C     33.23000000     1.40000000    38.35000000
   N     32.44000000     2.49000000    37.77000000
   H     36.36000000    -2.65000000    35.40000000
   H     34.05000000    -3.68000000    36.92000000
   H     32.56000000    -2.14000000    36.20000000
   H     33.85000000    -1.07000000    35.51000000
   H     34.72000000    -0.45000000    37.32000000
   H     34.13000000    -1.64000000    38.40000000
   H     32.03000000    -0.37000000    38.57000000
   H     32.15000000     0.17000000    36.93000000
   H     34.27000000     1.49000000    38.03000000
   H     33.27000000     1.37000000    39.44000000
   H     32.37000000     2.45000000    36.76000000
   H     31.49000000     2.42000000    38.12000000
   H     32.78000000     3.41000000    38.01000000
   N     33.56000000    -4.86000000    34.56000000
   C     33.45000000    -6.00000000    35.45000000
   C     32.44000000    -5.78000000    36.56000000
   O     31.93000000    -4.68000000    36.74000000
   C     34.85000000    -6.44000000    35.89000000
   C     35.93000000    -6.46000000    34.82000000
   O     35.76000000    -6.53000000    33.59000000
   O     37.13000000    -6.35000000    35.18000000
   H     33.49000000    -5.14000000    33.59000000
   H     33.06000000    -6.74000000    34.75000000
   H     34.86000000    -7.31000000    36.54000000
   H     35.17000000    -5.63000000    36.55000000
   N     32.00000000    -6.76000000    37.36000000
   C     32.40000000    -8.14000000    37.54000000
   C     32.59000000    -8.44000000    39.02000000
   O     31.88000000    -7.84000000    39.83000000
   H     31.44000000    -6.45000000    38.13000000
   H     33.28000000    -8.50000000    37.00000000
   H     31.73000000    -8.92000000    37.17000000
   N     33.41000000    -9.36000000    39.53000000
   C     34.32000000   -10.18000000    38.77000000
   C     35.52000000    -9.45000000    38.17000000
   O     35.89000000    -9.70000000    37.03000000
   C     34.81000000   -11.36000000    39.61000000
   C     35.10000000   -10.85000000    41.02000000
   O     34.14000000   -10.66000000    41.79000000
   O     36.25000000   -10.47000000    41.33000000
   H     33.31000000    -9.45000000    40.53000000
   H     33.84000000   -10.74000000    37.96000000
   H     35.77000000   -11.71000000    39.23000000
   H     34.06000000   -12.15000000    39.62000000
   N     36.09000000    -8.50000000    38.92000000
   C     37.17000000    -7.61000000    38.55000000
   C     38.54000000    -8.23000000    38.29000000
   O     39.20000000    -8.77000000    39.18000000
   H     35.82000000    -8.61000000    39.89000000
   H     37.25000000    -6.78000000    39.25000000
   H     36.86000000    -7.22000000    37.57000000
   N     39.07000000    -7.94000000    37.10000000
   C     40.44000000    -8.12000000    36.68000000
   C     40.82000000    -6.94000000    35.79000000
   O     40.11000000    -6.58000000    34.86000000
   C     40.58000000    -9.48000000    36.01000000
   C     42.02000000    -9.90000000    35.71000000
   O     39.87000000    -9.50000000    34.79000000
   H     38.45000000    -7.41000000    36.51000000
   H     41.04000000    -8.11000000    37.59000000
   H     40.13000000   -10.28000000    36.61000000
   H     38.94000000    -9.71000000    34.89000000
   H     42.26000000    -9.43000000    34.77000000
   H     42.69000000    -9.63000000    36.52000000
   H     42.10000000   -10.97000000    35.49000000
   N     42.05000000    -6.48000000    36.04000000
   C     42.73000000    -5.34000000    35.47000000
   C     44.21000000    -5.64000000    35.25000000
   O     45.13000000    -5.30000000    35.99000000
   C     42.44000000    -4.09000000    36.30000000
   C     43.12000000    -2.77000000    35.97000000
   C     42.69000000    -4.29000000    37.79000000
   C     43.21000000    -2.39000000    34.49000000
   H     42.63000000    -7.01000000    36.68000000
   H     42.23000000    -5.16000000    34.52000000
   H     41.36000000    -3.90000000    36.27000000
   H     44.13000000    -2.89000000    36.38000000
   H     42.68000000    -1.87000000    36.41000000
   H     41.82000000    -4.71000000    38.31000000
   H     43.52000000    -4.98000000    37.91000000
   H     42.92000000    -3.38000000    38.33000000
   H     43.89000000    -1.55000000    34.37000000
   H     43.66000000    -3.25000000    34.00000000
   H     42.25000000    -2.14000000    34.04000000
   N     44.41000000    -6.53000000    34.27000000
   C     45.68000000    -7.05000000    33.83000000
   C     46.02000000    -6.63000000    32.41000000
   O     47.01000000    -7.12000000    31.87000000
   C     45.89000000    -8.56000000    33.90000000
   C     45.23000000    -9.41000000    32.82000000
   O     45.35000000    -8.97000000    35.14000000
   H     43.59000000    -6.98000000    33.88000000
   H     46.45000000    -6.62000000    34.47000000
   H     46.96000000    -8.73000000    33.98000000
   H     45.92000000    -8.68000000    35.86000000
   H     45.72000000    -9.44000000    31.84000000
   H     45.21000000   -10.45000000    33.12000000
   H     44.24000000    -8.99000000    32.62000000
   N     45.22000000    -5.81000000    31.71000000
   C     45.36000000    -5.35000000    30.35000000
   C     45.15000000    -6.40000000    29.27000000
   O     45.39000000    -7.57000000    29.55000000
   C     46.70000000    -4.65000000    30.10000000
   C     47.06000000    -3.75000000    31.27000000
   O     46.70000000    -3.87000000    28.92000000
   H     44.45000000    -5.43000000    32.23000000
   H     44.57000000    -4.62000000    30.15000000
   H     47.40000000    -5.48000000    30.01000000
   H     47.43000000    -3.27000000    29.09000000
   H     47.55000000    -4.33000000    32.05000000
   H     47.73000000    -2.93000000    30.98000000
   H     46.16000000    -3.33000000    31.71000000
   N     44.72000000    -6.05000000    28.06000000
   C     44.72000000    -6.94000000    26.92000000
   C     43.43000000    -7.29000000    26.18000000
   O     43.52000000    -8.22000000    25.39000000
   C     45.81000000    -6.50000000    25.95000000
   C     47.22000000    -6.61000000    26.53000000
   C     48.29000000    -6.34000000    25.48000000
   C     49.67000000    -6.74000000    25.99000000
   N     50.67000000    -6.62000000    24.92000000
   H     44.37000000    -5.10000000    28.02000000
   H     45.00000000    -7.94000000    27.25000000
   H     45.56000000    -5.47000000    25.72000000
   H     45.86000000    -7.08000000    25.03000000
   H     47.47000000    -7.63000000    26.81000000
   H     47.30000000    -5.94000000    27.38000000
   H     48.22000000    -5.25000000    25.39000000
   H     48.22000000    -6.80000000    24.49000000
   H     49.64000000    -7.78000000    26.30000000
   H     50.05000000    -6.21000000    26.87000000
   H     50.57000000    -7.35000000    24.23000000
   H     50.63000000    -5.74000000    24.43000000
   H     51.59000000    -6.80000000    25.30000000
   N     42.30000000    -6.62000000    26.42000000
   C     42.03000000    -5.38000000    27.13000000
   C     42.93000000    -4.22000000    26.72000000
   O     43.47000000    -3.55000000    27.59000000
   C     41.64000000    -5.55000000    28.59000000
   C     40.13000000    -5.78000000    28.69000000
   C     39.60000000    -5.84000000    30.12000000
   O     38.40000000    -6.04000000    30.38000000
   O     40.33000000    -5.79000000    31.13000000
   H     41.53000000    -6.93000000    25.85000000
   H     41.06000000    -5.06000000    26.74000000
   H     41.90000000    -4.68000000    29.20000000
   H     42.21000000    -6.35000000    29.07000000
   H     39.93000000    -6.70000000    28.15000000
   H     39.51000000    -5.08000000    28.13000000
   N     43.15000000    -3.99000000    25.43000000
   C     43.93000000    -2.91000000    24.86000000
   H     44.89800000    -3.29300000    24.53700000
   H     43.40100000    -2.49200000    24.00300000
   H     44.07900000    -2.13300000    25.61000000
   H     42.65000000    -4.61000000    24.80000000
  Ca     38.37000000    -5.66900000    32.98000000
   O     39.90000000    -3.58900000    33.31000000
   H     39.87000000    -2.88900000    33.96000000
   H     40.80000000    -3.57900000    32.99000000
   O     36.94000000    -3.65900000    33.62000000
   H     35.99000000    -3.50900000    33.63000000
   H     37.29000000    -2.87900000    33.19000000
   O     38.47000000    -8.30900000    32.52000000
   H     37.80000000    -8.78900000    33.01000000
   H     39.00000000    -8.99900000    32.11000000

Ca 1.70



