%chk=loop3.cluster166.chk
%nprocshared=48
%mem=10GB
%nosave
#b3lyp/svp scf=(tight,noincore) Test 
#IOP(5/87=12) Density=Current Pop=(MK,readradii) iop(6/33=2) iop(6/42=6)

loop3.cluster166 

   0  1 
   C     -0.52000000   -22.40000000    34.15000000
   C     -1.16000000   -23.74000000    33.82000000
   O     -1.61000000   -24.47000000    34.70000000
   H      0.42500000   -22.30700000    33.61400000
   H     -1.18800000   -21.59300000    33.84900000
   H     -0.33600000   -22.33900000    35.22300000
   N     -1.20000000   -24.20000000    32.56000000
   C     -2.04000000   -25.33000000    32.23000000
   C     -1.29000000   -26.60000000    32.59000000
   O     -0.27000000   -26.94000000    31.99000000
   C     -2.52000000   -25.24000000    30.78000000
   C     -3.32000000   -26.42000000    30.24000000
   O     -3.33000000   -27.46000000    30.94000000
   O     -4.10000000   -26.31000000    29.28000000
   H     -0.60000000   -23.79000000    31.86000000
   H     -2.95000000   -25.26000000    32.82000000
   H     -1.65000000   -25.13000000    30.14000000
   H     -3.12000000   -24.35000000    30.59000000
   N     -1.84000000   -27.40000000    33.51000000
   C     -1.21000000   -28.47000000    34.25000000
   C     -0.65000000   -29.61000000    33.41000000
   O      0.14000000   -30.46000000    33.81000000
   C     -2.22000000   -28.97000000    35.29000000
   C     -3.34000000   -29.85000000    34.75000000
   C     -4.08000000   -30.59000000    35.86000000
   C     -4.66000000   -31.92000000    35.39000000
   N     -5.43000000   -31.85000000    34.14000000
   H     -2.73000000   -27.09000000    33.89000000
   H     -0.38000000   -27.97000000    34.75000000
   H     -2.74000000   -28.22000000    35.88000000
   H     -1.66000000   -29.62000000    35.96000000
   H     -2.89000000   -30.59000000    34.10000000
   H     -4.05000000   -29.26000000    34.16000000
   H     -4.78000000   -29.87000000    36.29000000
   H     -3.39000000   -30.83000000    36.67000000
   H     -5.34000000   -32.14000000    36.22000000
   H     -3.91000000   -32.70000000    35.26000000
   H     -5.63000000   -32.74000000    33.71000000
   H     -6.32000000   -31.39000000    34.27000000
   H     -5.02000000   -31.41000000    33.32000000
   N     -1.12000000   -29.69000000    32.16000000
   C     -0.83000000   -30.64000000    31.11000000
   C     -0.58000000   -30.05000000    29.73000000
   O     -0.04000000   -30.74000000    28.87000000
   C     -1.91000000   -31.72000000    31.20000000
   C     -3.26000000   -31.05000000    30.97000000
   O     -3.54000000   -30.42000000    29.92000000
   O     -4.05000000   -30.97000000    31.93000000
   H     -1.87000000   -29.05000000    31.93000000
   H      0.08000000   -31.17000000    31.37000000
   H     -1.72000000   -32.30000000    32.10000000
   H     -1.68000000   -32.39000000    30.38000000
   N     -0.99000000   -28.81000000    29.45000000
   C     -0.84000000   -28.05000000    28.23000000
   C     -1.98000000   -28.23000000    27.24000000
   O     -2.09000000   -27.41000000    26.33000000
   H     -1.53000000   -28.46000000    30.23000000
   H      0.11000000   -28.39000000    27.81000000
   H     -0.65000000   -27.00000000    28.42000000
   N     -2.87000000   -29.22000000    27.39000000
   C     -4.07000000   -29.34000000    26.59000000
   C     -5.12000000   -28.37000000    27.10000000
   O     -5.46000000   -28.52000000    28.27000000
   C     -4.42000000   -30.82000000    26.48000000
   C     -5.87000000   -31.04000000    26.05000000
   N     -6.23000000   -30.87000000    24.77000000
   O     -6.69000000   -31.37000000    26.90000000
   H     -2.88000000   -29.67000000    28.30000000
   H     -3.86000000   -29.00000000    25.57000000
   H     -4.37000000   -31.26000000    27.47000000
   H     -3.82000000   -31.35000000    25.74000000
   H     -5.56000000   -30.68000000    24.04000000
   H     -7.20000000   -30.85000000    24.52000000
   N     -5.67000000   -27.46000000    26.28000000
   C     -6.65000000   -26.47000000    26.69000000
   C     -7.90000000   -26.98000000    27.38000000
   O     -8.64000000   -26.11000000    27.84000000
   H     -5.47000000   -27.50000000    25.29000000
   H     -7.05000000   -26.08000000    25.76000000
   H     -6.20000000   -25.62000000    27.19000000
   N     -8.15000000   -28.28000000    27.50000000
   C     -9.33000000   -28.80000000    28.16000000
   C     -9.19000000   -28.74000000    29.68000000
   O     -8.14000000   -28.98000000    30.27000000
   C     -9.58000000   -30.28000000    27.84000000
   C    -10.89000000   -30.82000000    28.37000000
   C    -10.88000000   -31.56000000    29.57000000
   C    -12.11000000   -30.67000000    27.72000000
   C    -12.03000000   -32.22000000    30.01000000
   C    -13.27000000   -31.38000000    28.05000000
   C    -13.20000000   -32.15000000    29.23000000
   O    -14.29000000   -32.77000000    29.78000000
   H     -7.40000000   -28.91000000    27.25000000
   H    -10.19000000   -28.24000000    27.81000000
   H     -8.79000000   -30.89000000    28.27000000
   H     -9.52000000   -30.38000000    26.76000000
   H     -9.92000000   -31.75000000    30.02000000
   H    -12.05000000   -30.06000000    26.83000000
   H    -11.96000000   -32.91000000    30.84000000
   H    -14.17000000   -31.39000000    27.45000000
   H    -15.11000000   -32.72000000    29.29000000
   N    -10.26000000   -28.28000000    30.34000000
   C    -10.59000000   -28.21000000    31.75000000
   C    -10.59000000   -29.59000000    32.39000000
   O     -9.58000000   -30.28000000    32.42000000
   C     -9.63000000   -27.26000000    32.47000000
   C     -9.81000000   -27.18000000    33.98000000
   C     -9.65000000   -25.89000000    31.80000000
   C    -11.12000000   -26.57000000    34.46000000
   H    -11.02000000   -28.10000000    29.70000000
   H    -11.62000000   -27.85000000    31.82000000
   H     -8.60000000   -27.61000000    32.42000000
   H     -8.89000000   -26.75000000    34.37000000
   H     -9.84000000   -28.19000000    34.41000000
   H     -9.04000000   -25.84000000    30.90000000
   H    -10.69000000   -25.58000000    31.63000000
   H     -9.12000000   -25.21000000    32.47000000
   H    -11.14000000   -25.51000000    34.19000000
   H    -11.94000000   -27.15000000    34.03000000
   H    -11.07000000   -26.68000000    35.55000000
   N    -11.63000000   -29.98000000    33.13000000
   C    -11.77000000   -31.26000000    33.78000000
   C    -13.19000000   -31.80000000    33.78000000
   O    -13.33000000   -33.03000000    33.80000000
   C    -11.20000000   -31.17000000    35.20000000
   O    -11.98000000   -30.21000000    35.88000000
   H    -12.32000000   -29.26000000    33.32000000
   H    -11.24000000   -32.00000000    33.18000000
   H    -10.12000000   -30.98000000    35.14000000
   H    -11.41000000   -32.08000000    35.75000000
   H    -11.66000000   -30.16000000    36.78000000
   N    -14.21000000   -30.95000000    33.85000000
   C    -15.62000000   -31.27000000    33.98000000
   C    -16.00000000   -32.01000000    35.26000000
   O    -16.65000000   -33.03000000    35.07000000
   C    -16.16000000   -31.67000000    32.61000000
   H    -14.01000000   -29.96000000    33.74000000
   H    -16.04000000   -30.28000000    34.17000000
   H    -15.68000000   -32.62000000    32.41000000
   H    -17.23000000   -31.83000000    32.68000000
   H    -15.92000000   -30.92000000    31.85000000
   N    -15.70000000   -31.63000000    36.51000000
   C    -15.26000000   -30.31000000    36.91000000
   C    -16.46000000   -29.45000000    37.26000000
   O    -17.48000000   -30.03000000    37.63000000
   C    -14.32000000   -30.46000000    38.11000000
   H    -15.87000000   -32.34000000    37.21000000
   H    -14.80000000   -29.84000000    36.04000000
   H    -14.81000000   -31.04000000    38.89000000
   H    -13.49000000   -31.08000000    37.77000000
   H    -13.96000000   -29.49000000    38.45000000
   N    -16.48000000   -28.13000000    37.06000000
   C    -15.37000000   -27.23000000    36.78000000
   C    -15.76000000   -26.15000000    35.77000000
   O    -14.98000000   -25.67000000    34.95000000
   C    -14.87000000   -26.63000000    38.08000000
   C    -13.41000000   -26.25000000    37.86000000
   C    -12.74000000   -26.00000000    39.21000000
   O    -13.11000000   -25.01000000    39.87000000
   O    -11.83000000   -26.76000000    39.62000000
   H    -17.37000000   -27.72000000    37.29000000
   H    -14.59000000   -27.78000000    36.25000000
   H    -14.82000000   -27.37000000    38.88000000
   H    -15.42000000   -25.70000000    38.26000000
   H    -13.27000000   -25.39000000    37.20000000
   H    -12.86000000   -27.07000000    37.42000000
   N    -16.95000000   -25.59000000    36.00000000
   C    -17.37000000   -24.32000000    35.47000000
   H    -18.29000000   -24.00700000    35.96400000
   H    -16.59200000   -23.57700000    35.64700000
   H    -17.54700000   -24.41300000    34.39900000
   H    -17.47000000   -25.99000000    36.77000000
  Ca     -5.46600000   -28.84600000    30.74000000
   O     -6.48600000   -31.19600000    29.73000000
   H     -7.04600000   -31.70600000    30.32000000
   H     -6.91600000   -31.25600000    28.88000000
   O     -6.94600000   -29.76600000    32.80000000
   H     -7.80600000   -30.16600000    32.61000000
   H     -7.04600000   -29.40600000    33.68000000
   O     -6.56600000   -26.26600000    29.99000000
   H     -6.93600000   -25.44600000    29.67000000
   H     -5.73600000   -26.35600000    29.52000000
   O     -5.64600000   -26.82600000    32.54000000
   H     -5.20600000   -26.25600000    33.16000000
   H     -6.34600000   -26.28600000    32.16000000

Ca 1.70



