%chk=loop4.cluster68.chk
%nprocshared=48
%mem=10GB
%nosave
#b3lyp/svp scf=(tight,noincore) Test 
#IOP(5/87=12) Density=Current Pop=(MK,readradii) iop(6/33=2) iop(6/42=6)

loop4.cluster68 

   -3  1 
   C    101.20000000    77.78000000    33.99000000
   C    102.44000000    76.91000000    33.90000000
   O    102.45000000    75.76000000    33.48000000
   H    100.38700000    77.20700000    34.43600000
   H    101.41100000    78.65200000    34.60900000
   H    100.91000000    78.10400000    32.99100000
   N    103.56000000    77.48000000    34.36000000
   C    104.85000000    76.99000000    34.80000000
   C    105.55000000    76.13000000    33.75000000
   O    106.69000000    75.71000000    33.91000000
   C    104.68000000    76.36000000    36.18000000
   C    104.13000000    74.95000000    36.21000000
   O    103.85000000    74.52000000    37.35000000
   O    104.13000000    74.22000000    35.19000000
   H    103.41000000    78.41000000    34.71000000
   H    105.44000000    77.91000000    34.84000000
   H    104.06000000    77.10000000    36.69000000
   H    105.68000000    76.33000000    36.62000000
   N    104.95000000    76.02000000    32.55000000
   C    105.48000000    75.32000000    31.40000000
   C    105.40000000    73.81000000    31.55000000
   O    104.62000000    73.35000000    32.38000000
   C    104.61000000    75.81000000    30.25000000
   C    105.21000000    77.11000000    29.73000000
   C    103.10000000    75.93000000    30.45000000
   C    104.65000000    77.43000000    28.35000000
   H    103.96000000    76.20000000    32.53000000
   H    106.53000000    75.55000000    31.20000000
   H    104.76000000    75.11000000    29.42000000
   H    106.29000000    77.04000000    29.60000000
   H    104.89000000    77.89000000    30.42000000
   H    102.83000000    76.68000000    31.20000000
   H    102.65000000    76.04000000    29.46000000
   H    102.83000000    75.02000000    30.97000000
   H    103.67000000    77.84000000    28.59000000
   H    105.39000000    78.02000000    27.80000000
   H    104.56000000    76.55000000    27.71000000
   N    106.26000000    73.07000000    30.85000000
   C    106.28000000    71.62000000    30.92000000
   C    106.58000000    71.16000000    32.34000000
   O    107.56000000    71.59000000    32.94000000
   C    107.18000000    70.94000000    29.88000000
   C    108.41000000    71.73000000    29.45000000
   O    108.22000000    72.72000000    28.71000000
   O    109.56000000    71.35000000    29.74000000
   H    106.76000000    73.42000000    30.04000000
   H    105.28000000    71.28000000    30.65000000
   H    106.56000000    70.75000000    29.00000000
   H    107.43000000    69.96000000    30.28000000
   N    105.87000000    70.20000000    32.93000000
   C    104.94000000    69.28000000    32.31000000
   C    103.52000000    69.81000000    32.30000000
   O    103.20000000    70.74000000    33.03000000
   H    106.13000000    70.00000000    33.88000000
   H    104.97000000    68.34000000    32.86000000
   H    105.26000000    68.99000000    31.31000000
   N    102.59000000    69.30000000    31.48000000
   C    102.83000000    68.39000000    30.37000000
   C    101.80000000    68.71000000    29.30000000
   O    100.62000000    68.76000000    29.64000000
   C    102.54000000    67.00000000    30.93000000
   C    102.70000000    65.86000000    29.93000000
   O    103.84000000    65.48000000    29.61000000
   O    101.67000000    65.30000000    29.48000000
   H    101.70000000    69.76000000    31.60000000
   H    103.81000000    68.56000000    29.94000000
   H    101.57000000    66.91000000    31.40000000
   H    103.19000000    66.79000000    31.78000000
   N    102.18000000    68.86000000    28.03000000
   C    103.54000000    68.99000000    27.53000000
   C    103.76000000    69.56000000    26.14000000
   O    104.86000000    69.35000000    25.64000000
   H    101.41000000    69.01000000    27.39000000
   H    104.12000000    68.07000000    27.54000000
   H    104.04000000    69.75000000    28.13000000
   N    102.81000000    70.28000000    25.54000000
   C    102.80000000    70.67000000    24.14000000
   C    102.12000000    72.03000000    24.01000000
   O    100.97000000    72.13000000    23.60000000
   C    102.13000000    69.54000000    23.36000000
   C    102.78000000    68.15000000    23.32000000
   C    102.08000000    67.27000000    22.29000000
   N    100.99000000    66.64000000    22.71000000
   O    102.54000000    67.17000000    21.16000000
   H    102.04000000    70.61000000    26.10000000
   H    103.79000000    70.82000000    23.73000000
   H    102.05000000    69.90000000    22.34000000
   H    101.09000000    69.46000000    23.66000000
   H    102.74000000    67.76000000    24.34000000
   H    103.83000000    68.29000000    23.08000000
   H    100.74000000    66.84000000    23.67000000
   H    100.48000000    66.12000000    22.01000000
   N    102.78000000    73.08000000    24.52000000
   C    102.26000000    74.43000000    24.46000000
   C    101.15000000    74.63000000    25.49000000
   O    101.30000000    74.36000000    26.68000000
   C    103.31000000    75.51000000    24.70000000
   C    102.66000000    76.84000000    24.34000000
   C    104.51000000    75.30000000    23.79000000
   H    103.65000000    72.90000000    25.00000000
   H    101.79000000    74.58000000    23.49000000
   H    103.69000000    75.60000000    25.71000000
   H    101.91000000    76.78000000    23.55000000
   H    102.07000000    77.18000000    25.20000000
   H    103.44000000    77.56000000    24.11000000
   H    104.30000000    75.06000000    22.74000000
   H    105.12000000    76.20000000    23.78000000
   H    105.11000000    74.46000000    24.13000000
   N    100.05000000    75.26000000    25.07000000
   C     98.99000000    75.80000000    25.89000000
   C     97.88000000    74.81000000    26.21000000
   O     97.12000000    74.88000000    27.18000000
   C     98.36000000    77.01000000    25.21000000
   C     97.26000000    77.73000000    25.98000000
   N     96.17000000    77.99000000    25.26000000
   O     97.28000000    78.19000000    27.12000000
   H     99.99000000    75.33000000    24.06000000
   H     99.39000000    76.11000000    26.86000000
   H     98.04000000    76.68000000    24.22000000
   H     99.11000000    77.77000000    24.99000000
   H     96.06000000    77.85000000    24.26000000
   H     95.54000000    78.61000000    25.75000000
   N     97.75000000    73.85000000    25.29000000
   C     96.94000000    72.66000000    25.48000000
   C     97.39000000    72.00000000    26.77000000
   O     98.57000000    71.93000000    27.11000000
   C     97.05000000    71.67000000    24.32000000
   C     96.73000000    72.24000000    22.96000000
   C     97.76000000    72.72000000    22.15000000
   C     95.40000000    72.40000000    22.55000000
   C     97.55000000    73.17000000    20.84000000
   C     95.14000000    72.99000000    21.30000000
   C     96.20000000    73.22000000    20.41000000
   O     95.85000000    73.66000000    19.17000000
   H     98.27000000    74.08000000    24.46000000
   H     95.90000000    72.94000000    25.61000000
   H     96.37000000    70.84000000    24.55000000
   H     98.05000000    71.25000000    24.27000000
   H     98.79000000    72.61000000    22.43000000
   H     94.56000000    72.22000000    23.20000000
   H     98.39000000    73.42000000    20.20000000
   H     94.12000000    73.03000000    20.94000000
   H     96.62000000    73.84000000    18.62000000
   N     96.38000000    71.45000000    27.46000000
   C     96.42000000    70.82000000    28.77000000
   C     96.94000000    71.66000000    29.92000000
   O     96.96000000    71.22000000    31.07000000
   C     97.07000000    69.44000000    28.66000000
   C     96.54000000    68.50000000    27.58000000
   C     95.21000000    67.87000000    27.97000000
   O     94.16000000    68.14000000    27.34000000
   O     95.13000000    67.10000000    28.95000000
   H     95.43000000    71.54000000    27.14000000
   H     95.37000000    70.66000000    29.02000000
   H     97.13000000    68.91000000    29.61000000
   H     98.07000000    69.77000000    28.38000000
   H     97.24000000    67.68000000    27.43000000
   H     96.49000000    69.06000000    26.64000000
   N     97.13000000    72.96000000    29.69000000
   C     97.27000000    73.98000000    30.70000000
   C     96.09000000    74.94000000    30.84000000
   O     96.06000000    75.69000000    31.82000000
   C     98.48000000    74.83000000    30.33000000
   C     99.83000000    74.15000000    30.11000000
   C    100.49000000    73.57000000    31.35000000
   O    101.57000000    72.95000000    31.30000000
   O    100.06000000    73.75000000    32.51000000
   H     97.21000000    73.25000000    28.73000000
   H     97.53000000    73.65000000    31.71000000
   H     98.59000000    75.61000000    31.08000000
   H     98.27000000    75.36000000    29.40000000
   H    100.59000000    74.84000000    29.75000000
   H     99.68000000    73.29000000    29.45000000
   N     95.15000000    74.85000000    29.91000000
   C     93.88000000    75.55000000    29.94000000
   H     93.13100000    74.92200000    30.42200000
   H     93.98900000    76.47900000    30.50000000
   H     93.56400000    75.77500000    28.92100000
   H     95.31000000    74.20000000    29.15000000
  Ca    102.43500000    73.17000000    33.65000000
   O    100.73500000    74.23000000    35.73000000
   H    100.72500000    75.18000000    35.85000000
   H    100.03500000    73.91000000    36.30000000
   O    103.26500000    71.45000000    35.74000000
   H    102.57500000    70.90000000    36.11000000
   H    103.95500000    71.43000000    36.41000000
   O    100.58500000    71.25000000    34.13000000
   H    100.31500000    70.57000000    34.75000000
   H    100.16500000    71.00000000    33.31000000

Ca 1.70



