%chk=loop4.cluster96.chk
%nprocshared=48
%mem=10GB
%nosave
#b3lyp/svp scf=(tight,noincore) Test 
#IOP(5/87=12) Density=Current Pop=(MK,readradii) iop(6/33=2) iop(6/42=6)

loop4.cluster96 

   -3  1 
   C     40.33000000    42.15000000    42.97000000
   C     40.09000000    41.60000000    44.37000000
   O     40.73000000    40.63000000    44.76000000
   H     41.37600000    42.00800000    42.69900000
   H     39.69600000    41.62200000    42.25800000
   H     40.09200000    43.21300000    42.95100000
   N     39.11000000    42.18000000    45.08000000
   C     38.94000000    42.10000000    46.52000000
   C     40.24000000    42.56000000    47.15000000
   O     40.80000000    41.85000000    47.99000000
   C     38.39000000    40.78000000    47.07000000
   C     38.94000000    39.46000000    46.56000000
   O     38.43000000    38.86000000    45.59000000
   O     39.94000000    38.91000000    47.08000000
   H     38.71000000    43.03000000    44.71000000
   H     38.19000000    42.84000000    46.81000000
   H     37.34000000    40.79000000    46.76000000
   H     38.47000000    40.72000000    48.15000000
   N     40.73000000    43.80000000    47.03000000
   C     41.65000000    44.42000000    47.96000000
   C     41.11000000    44.70000000    49.36000000
   O     41.40000000    45.82000000    49.77000000
   C     43.06000000    43.85000000    47.90000000
   C     44.07000000    44.91000000    48.32000000
   C     43.46000000    43.23000000    46.56000000
   C     45.49000000    44.36000000    48.38000000
   H     40.37000000    44.44000000    46.34000000
   H     41.83000000    45.43000000    47.58000000
   H     43.19000000    43.04000000    48.62000000
   H     43.87000000    45.30000000    49.32000000
   H     44.06000000    45.79000000    47.66000000
   H     44.39000000    42.68000000    46.43000000
   H     42.82000000    42.41000000    46.22000000
   H     43.56000000    44.02000000    45.82000000
   H     45.49000000    43.40000000    48.90000000
   H     46.05000000    44.28000000    47.44000000
   H     46.08000000    45.06000000    48.97000000
   N     40.38000000    43.77000000    49.99000000
   C     40.01000000    43.95000000    51.38000000
   C     40.51000000    42.94000000    52.39000000
   O     40.67000000    43.30000000    53.56000000
   C     38.49000000    44.05000000    51.46000000
   C     37.87000000    45.07000000    50.53000000
   O     38.38000000    46.21000000    50.42000000
   O     36.78000000    44.83000000    49.95000000
   H     40.28000000    42.89000000    49.50000000
   H     40.51000000    44.85000000    51.75000000
   H     38.19000000    44.33000000    52.47000000
   H     37.99000000    43.11000000    51.24000000
   N     40.86000000    41.68000000    52.11000000
   C     40.80000000    40.98000000    50.85000000
   C     40.70000000    39.46000000    50.96000000
   O     39.59000000    38.95000000    50.96000000
   H     41.24000000    41.14000000    52.88000000
   H     41.65000000    41.20000000    50.20000000
   H     39.91000000    41.31000000    50.32000000
   N     41.83000000    38.77000000    51.18000000
   C     43.17000000    39.22000000    51.48000000
   C     43.91000000    39.44000000    50.17000000
   O     43.84000000    38.74000000    49.17000000
   C     43.98000000    38.34000000    52.43000000
   C     45.39000000    38.81000000    52.76000000
   O     45.59000000    39.64000000    53.67000000
   O     46.34000000    38.23000000    52.20000000
   H     41.66000000    37.79000000    51.02000000
   H     43.02000000    40.16000000    52.01000000
   H     44.11000000    37.42000000    51.85000000
   H     43.36000000    38.07000000    53.28000000
   N     44.78000000    40.44000000    49.98000000
   C     45.20000000    41.43000000    50.95000000
   C     46.67000000    41.80000000    50.88000000
   O     47.06000000    42.96000000    50.89000000
   H     45.12000000    40.51000000    49.03000000
   H     44.93000000    41.18000000    51.98000000
   H     44.61000000    42.33000000    50.78000000
   N     47.58000000    40.82000000    50.82000000
   C     48.94000000    41.13000000    50.45000000
   C     49.19000000    40.97000000    48.96000000
   O     49.91000000    40.10000000    48.46000000
   C     50.07000000    40.42000000    51.21000000
   C     49.81000000    39.01000000    51.73000000
   C     49.57000000    37.99000000    50.63000000
   N     48.35000000    37.47000000    50.51000000
   O     50.48000000    37.44000000    50.02000000
   H     47.16000000    39.90000000    50.88000000
   H     49.14000000    42.17000000    50.72000000
   H     50.27000000    40.96000000    52.13000000
   H     51.00000000    40.47000000    50.65000000
   H     48.96000000    38.88000000    52.39000000
   H     50.70000000    38.69000000    52.27000000
   H     47.56000000    37.79000000    51.05000000
   H     48.20000000    36.75000000    49.81000000
   N     48.40000000    41.74000000    48.19000000
   C     48.07000000    41.49000000    46.81000000
   C     49.23000000    41.05000000    45.93000000
   O     49.29000000    39.98000000    45.32000000
   C     46.81000000    40.64000000    46.68000000
   C     46.88000000    39.26000000    47.33000000
   C     46.26000000    40.51000000    45.26000000
   H     47.91000000    42.48000000    48.67000000
   H     47.93000000    42.48000000    46.37000000
   H     46.12000000    41.14000000    47.36000000
   H     45.89000000    38.82000000    47.22000000
   H     47.58000000    38.64000000    46.78000000
   H     47.23000000    39.36000000    48.36000000
   H     47.01000000    39.89000000    44.76000000
   H     45.28000000    40.04000000    45.36000000
   H     46.17000000    41.43000000    44.68000000
   N     50.31000000    41.83000000    45.84000000
   C     51.50000000    41.61000000    45.04000000
   C     51.07000000    41.63000000    43.58000000
   O     50.96000000    42.71000000    43.01000000
   C     52.35000000    40.46000000    45.58000000
   C     53.68000000    40.37000000    44.85000000
   N     54.05000000    39.24000000    44.24000000
   O     54.36000000    41.39000000    44.72000000
   H     50.46000000    42.68000000    46.36000000
   H     52.10000000    42.52000000    45.13000000
   H     51.91000000    39.49000000    45.35000000
   H     52.47000000    40.54000000    46.66000000
   H     53.50000000    38.40000000    44.26000000
   H     54.73000000    39.51000000    43.55000000
   N     51.05000000    40.51000000    42.87000000
   C     50.47000000    40.30000000    41.55000000
   C     50.11000000    38.83000000    41.39000000
   O     50.02000000    38.11000000    42.39000000
   C     51.51000000    40.77000000    40.54000000
   C     52.95000000    40.53000000    40.92000000
   C     53.53000000    39.26000000    40.85000000
   C     53.77000000    41.65000000    41.10000000
   C     54.90000000    39.10000000    41.12000000
   C     55.16000000    41.56000000    41.18000000
   C     55.69000000    40.26000000    41.23000000
   O     57.05000000    40.15000000    41.38000000
   H     51.23000000    39.71000000    43.46000000
   H     49.65000000    40.99000000    41.39000000
   H     51.45000000    41.85000000    40.46000000
   H     51.40000000    40.34000000    39.54000000
   H     52.92000000    38.38000000    40.75000000
   H     53.31000000    42.62000000    41.25000000
   H     55.33000000    38.12000000    41.25000000
   H     55.72000000    42.48000000    41.28000000
   H     57.49000000    40.82000000    41.89000000
   N     49.85000000    38.42000000    40.15000000
   C     49.06000000    37.26000000    39.80000000
   C     47.58000000    37.25000000    40.18000000
   O     46.96000000    36.19000000    40.27000000
   C     49.83000000    36.04000000    40.29000000
   C     49.80000000    34.77000000    39.44000000
   C     50.42000000    33.60000000    40.19000000
   O     49.70000000    32.61000000    40.44000000
   O     51.65000000    33.57000000    40.40000000
   H     49.93000000    39.04000000    39.35000000
   H     49.06000000    37.27000000    38.71000000
   H     49.42000000    35.79000000    41.27000000
   H     50.90000000    36.13000000    40.48000000
   H     50.38000000    35.00000000    38.55000000
   H     48.77000000    34.49000000    39.26000000
   N     47.10000000    38.46000000    40.46000000
   C     45.76000000    39.02000000    40.44000000
   C     45.75000000    40.28000000    39.58000000
   O     44.99000000    40.33000000    38.61000000
   C     45.01000000    39.17000000    41.76000000
   C     44.85000000    37.87000000    42.55000000
   C     43.54000000    37.75000000    43.31000000
   O     43.50000000    37.28000000    44.47000000
   O     42.44000000    38.06000000    42.80000000
   H     47.81000000    39.15000000    40.27000000
   H     45.17000000    38.37000000    39.79000000
   H     44.01000000    39.53000000    41.53000000
   H     45.51000000    39.91000000    42.38000000
   H     45.66000000    38.00000000    43.27000000
   H     44.92000000    36.97000000    41.95000000
   N     46.59000000    41.29000000    39.81000000
   C     46.83000000    42.41000000    38.93000000
   H     47.84900000    42.35900000    38.54800000
   H     46.12800000    42.37500000    38.09700000
   H     46.69500000    43.34100000    39.48100000
   H     47.27000000    41.26000000    40.56000000
  Ca     41.13000000    38.09000000    45.08000000
   O     42.66000000    39.69000000    46.75000000
   H     42.16000000    40.42000000    47.12000000
   H     42.84000000    39.12000000    47.50000000
   O     40.16000000    35.66000000    44.09000000
   H     40.64000000    35.19000000    43.41000000
   H     39.33000000    35.19000000    44.17000000
   O     41.65000000    36.44000000    47.20000000
   H     40.91000000    36.06000000    47.66000000
   H     42.40000000    36.29000000    47.78000000
   O     39.51000000    38.19000000    42.90000000
   H     39.22000000    37.39000000    42.48000000
   H     38.97000000    38.88000000    42.52000000

Ca 1.70



