%chk=loop3.cluster79.chk
%nprocshared=48
%mem=10GB
%nosave
#b3lyp/svp scf=(tight,noincore) Test 
#IOP(5/87=12) Density=Current Pop=(MK,readradii) iop(6/33=2) iop(6/42=6)

loop3.cluster79 

   0  1 
   C     98.05000000    46.71000000   102.83000000
   C     99.37000000    47.27000000   102.34000000
   O     99.60000000    47.59000000   101.18000000
   H     97.28000000    46.88700000   102.07900000
   H     98.15000000    45.63800000   103.00100000
   H     97.76900000    47.20200000   103.76100000
   N    100.29000000    47.55000000   103.27000000
   C    101.68000000    47.97000000   103.19000000
   C    102.71000000    47.19000000   103.98000000
   O    102.56000000    46.83000000   105.15000000
   C    101.85000000    49.45000000   103.50000000
   C    101.37000000    49.73000000   104.92000000
   O    102.13000000    50.46000000   105.60000000
   O    100.28000000    49.30000000   105.36000000
   H     99.88000000    47.48000000   104.19000000
   H    101.92000000    47.84000000   102.13000000
   H    101.39000000    50.09000000   102.75000000
   H    102.92000000    49.68000000   103.49000000
   N    103.88000000    46.98000000   103.37000000
   C    105.07000000    46.34000000   103.90000000
   C    105.80000000    45.50000000   102.85000000
   O    106.99000000    45.24000000   103.01000000
   C    106.01000000    47.42000000   104.42000000
   C    105.42000000    48.46000000   105.37000000
   C    106.35000000    49.66000000   105.26000000
   C    105.91000000    50.96000000   105.93000000
   N    104.64000000    51.47000000   105.39000000
   H    103.95000000    47.30000000   102.42000000
   H    104.89000000    45.67000000   104.74000000
   H    106.34000000    47.96000000   103.54000000
   H    106.94000000    47.00000000   104.82000000
   H    105.39000000    48.09000000   106.39000000
   H    104.41000000    48.80000000   105.12000000
   H    106.50000000    49.87000000   104.20000000
   H    107.36000000    49.47000000   105.60000000
   H    106.69000000    51.71000000   105.83000000
   H    105.80000000    50.89000000   107.01000000
   H    104.65000000    51.63000000   104.39000000
   H    103.86000000    50.83000000   105.50000000
   H    104.34000000    52.32000000   105.83000000
   N    105.10000000    44.92000000   101.87000000
   C    105.66000000    43.97000000   100.92000000
   C    106.43000000    44.56000000    99.75000000
   O    107.51000000    44.03000000    99.47000000
   C    104.53000000    43.13000000   100.32000000
   C    103.55000000    43.91000000    99.47000000
   O    103.30000000    45.12000000    99.70000000
   O    103.14000000    43.38000000    98.42000000
   H    104.11000000    45.06000000   101.72000000
   H    106.36000000    43.30000000   101.41000000
   H    103.99000000    42.66000000   101.14000000
   H    104.94000000    42.38000000    99.65000000
   N    105.89000000    45.60000000    99.11000000
   C    106.48000000    46.12000000    97.89000000
   C    105.42000000    46.93000000    97.16000000
   O    104.21000000    46.80000000    97.34000000
   H    105.08000000    46.04000000    99.51000000
   H    106.77000000    45.33000000    97.20000000
   H    107.34000000    46.69000000    98.25000000
   N    105.71000000    47.91000000    96.30000000
   C    107.03000000    48.26000000    95.83000000
   C    106.93000000    48.53000000    94.34000000
   O    106.32000000    49.54000000    94.00000000
   C    107.61000000    49.41000000    96.65000000
   C    108.96000000    49.90000000    96.14000000
   N    109.56000000    50.89000000    96.80000000
   O    109.51000000    49.36000000    95.19000000
   H    104.95000000    48.53000000    96.06000000
   H    107.63000000    47.36000000    96.02000000
   H    107.77000000    48.95000000    97.63000000
   H    106.83000000    50.15000000    96.85000000
   H    109.09000000    51.33000000    97.58000000
   H    110.30000000    51.43000000    96.38000000
   N    107.30000000    47.65000000    93.41000000
   C    108.02000000    46.39000000    93.46000000
   C    107.14000000    45.15000000    93.55000000
   O    106.35000000    45.13000000    94.49000000
   H    106.95000000    47.93000000    92.50000000
   H    108.56000000    46.40000000    94.40000000
   H    108.73000000    46.39000000    92.63000000
   N    107.33000000    44.13000000    92.71000000
   C    106.53000000    42.93000000    92.70000000
   C    107.50000000    41.77000000    92.83000000
   O    108.65000000    41.65000000    92.43000000
   C    105.98000000    42.77000000    91.28000000
   C    104.91000000    43.81000000    91.03000000
   C    103.88000000    44.00000000    91.96000000
   C    104.91000000    44.57000000    89.85000000
   C    102.76000000    44.74000000    91.59000000
   C    103.89000000    45.48000000    89.56000000
   C    102.79000000    45.56000000    90.45000000
   O    101.65000000    46.27000000    90.20000000
   H    108.17000000    44.25000000    92.16000000
   H    105.71000000    42.94000000    93.42000000
   H    105.50000000    41.80000000    91.16000000
   H    106.77000000    42.98000000    90.56000000
   H    103.86000000    43.49000000    92.91000000
   H    105.74000000    44.49000000    89.17000000
   H    101.87000000    44.70000000    92.21000000
   H    103.90000000    45.97000000    88.60000000
   H    101.54000000    46.76000000    89.38000000
   N    106.85000000    40.65000000    93.17000000
   C    107.32000000    39.29000000    93.00000000
   C    106.72000000    38.50000000    91.84000000
   O    107.27000000    37.57000000    91.25000000
   C    107.33000000    38.57000000    94.34000000
   C    106.00000000    37.87000000    94.64000000
   C    108.59000000    37.74000000    94.55000000
   C    106.05000000    37.12000000    95.97000000
   H    105.90000000    40.67000000    93.50000000
   H    108.34000000    39.34000000    92.60000000
   H    107.35000000    39.40000000    95.04000000
   H    105.74000000    37.15000000    93.86000000
   H    105.28000000    38.67000000    94.70000000
   H    108.49000000    36.88000000    93.89000000
   H    109.50000000    38.27000000    94.27000000
   H    108.75000000    37.28000000    95.53000000
   H    105.13000000    36.64000000    96.28000000
   H    106.71000000    36.26000000    95.90000000
   H    106.24000000    37.65000000    96.91000000
   N    105.52000000    38.92000000    91.46000000
   C    104.65000000    38.37000000    90.43000000
   C    103.80000000    37.22000000    90.95000000
   O    103.34000000    36.44000000    90.12000000
   C    103.90000000    39.50000000    89.73000000
   O    102.98000000    40.15000000    90.58000000
   H    105.19000000    39.83000000    91.75000000
   H    105.36000000    37.97000000    89.70000000
   H    103.34000000    39.12000000    88.88000000
   H    104.52000000    40.34000000    89.43000000
   H    103.47000000    40.39000000    91.37000000
   N    103.63000000    36.91000000    92.23000000
   C    102.82000000    35.79000000    92.69000000
   C    101.98000000    36.07000000    93.93000000
   O    102.45000000    36.59000000    94.94000000
   C    103.72000000    34.58000000    92.94000000
   H    104.02000000    37.46000000    92.98000000
   H    102.13000000    35.41000000    91.94000000
   H    104.29000000    34.33000000    92.05000000
   H    104.48000000    34.78000000    93.69000000
   H    103.10000000    33.72000000    93.21000000
   N    100.70000000    35.69000000    93.95000000
   C     99.83000000    35.88000000    95.09000000
   C     99.83000000    37.26000000    95.73000000
   O     99.74000000    37.47000000    96.94000000
   C     99.96000000    34.73000000    96.09000000
   H    100.31000000    35.22000000    93.15000000
   H     98.82000000    35.73000000    94.71000000
   H    100.05000000    33.77000000    95.58000000
   H    100.95000000    34.91000000    96.51000000
   H     99.15000000    34.68000000    96.82000000
   N    100.04000000    38.36000000    95.00000000
   C    100.09000000    39.72000000    95.51000000
   C     98.73000000    40.39000000    95.38000000
   O     98.37000000    41.27000000    96.17000000
   C    101.14000000    40.47000000    94.71000000
   C    102.54000000    39.87000000    94.78000000
   C    103.66000000    40.78000000    94.29000000
   O    104.25000000    41.57000000    95.05000000
   O    103.99000000    40.75000000    93.08000000
   H     99.97000000    38.26000000    94.00000000
   H    100.27000000    39.80000000    96.59000000
   H    101.23000000    41.45000000    95.19000000
   H    100.94000000    40.59000000    93.65000000
   H    102.60000000    38.94000000    94.21000000
   H    102.73000000    39.67000000    95.83000000
   N     97.92000000    39.91000000    94.43000000
   C     96.63000000    40.47000000    94.12000000
   H     95.92500000    40.21900000    94.91300000
   H     96.71400000    41.55400000    94.03900000
   H     96.27300000    40.06100000    93.17500000
   H     98.24000000    39.22000000    93.76000000
  Ca    101.85100000    45.74000000    97.58000000
   O    100.43100000    43.73000000    96.23000000
   H     99.97100000    42.92000000    96.43000000
   H    100.69100000    43.64000000    95.31000000
   O     99.57000000    46.97000000    96.88000000
   H     99.41000000    47.70000000    96.28000000
   H     98.78000000    46.92000000    97.41000000
   O    101.67100000    47.97000000    98.99000000
   H    101.09100000    47.91000000    99.75000000
   H    102.24100000    48.72000000    99.18000000
   O    103.29100000    44.43000000    95.75000000
   H    103.96100000    45.05000000    95.44000000
   H    103.61100000    43.58000000    95.47000000
   O    102.06100000    47.33000000    95.24000000
   H    102.61100000    48.11000000    95.25000000
   H    101.66100000    47.33000000    94.37000000
   O    100.37100000    45.12000000    99.62000000
   H     99.55100000    44.63000000    99.68000000
   H    100.82100000    44.92000000   100.44000000

Ca 1.70



