%chk=loop3.cluster99.chk
%nprocshared=48
%mem=10GB
%nosave
#b3lyp/svp scf=(tight,noincore) Test 
#IOP(5/87=12) Density=Current Pop=(MK,readradii) iop(6/33=2) iop(6/42=6)

loop3.cluster99 

   0  1 
   C     65.42000000    28.14000000    18.89000000
   C     66.34000000    29.16000000    18.23000000
   O     66.00000000    30.31000000    18.00000000
   H     64.47000000    28.10900000    18.35600000
   H     65.88600000    27.15500000    18.85800000
   H     65.24400000    28.42600000    19.92700000
   N     67.49000000    28.63000000    17.81000000
   C     68.54000000    29.45000000    17.24000000
   C     68.20000000    30.04000000    15.88000000
   O     68.75000000    31.05000000    15.43000000
   C     69.18000000    30.39000000    18.26000000
   C     70.69000000    30.57000000    18.10000000
   O     71.26000000    31.35000000    18.89000000
   O     71.32000000    29.95000000    17.21000000
   H     67.71000000    27.66000000    18.03000000
   H     69.24000000    28.65000000    17.01000000
   H     69.16000000    29.91000000    19.24000000
   H     68.62000000    31.31000000    18.39000000
   N     67.18000000    29.52000000    15.20000000
   C     66.59000000    29.98000000    13.96000000
   C     65.84000000    31.30000000    14.06000000
   O     65.36000000    31.84000000    13.06000000
   C     65.68000000    28.91000000    13.35000000
   C     66.26000000    27.50000000    13.35000000
   C     65.55000000    26.50000000    12.43000000
   C     66.21000000    25.13000000    12.35000000
   N     65.39000000    24.12000000    11.67000000
   H     66.68000000    28.75000000    15.62000000
   H     67.37000000    30.33000000    13.28000000
   H     65.58000000    29.18000000    12.30000000
   H     64.72000000    28.97000000    13.85000000
   H     66.23000000    27.06000000    14.34000000
   H     67.29000000    27.58000000    13.02000000
   H     65.45000000    26.95000000    11.44000000
   H     64.58000000    26.19000000    12.82000000
   H     66.52000000    24.90000000    13.37000000
   H     67.15000000    25.28000000    11.81000000
   H     65.21000000    24.44000000    10.73000000
   H     65.91000000    23.27000000    11.53000000
   H     64.51000000    23.91000000    12.13000000
   N     65.72000000    31.91000000    15.24000000
   C     65.23000000    33.27000000    15.40000000
   C     66.36000000    34.11000000    15.96000000
   O     67.01000000    33.81000000    16.96000000
   C     63.92000000    33.23000000    16.19000000
   C     63.11000000    34.52000000    16.22000000
   O     62.30000000    34.70000000    17.15000000
   O     63.31000000    35.41000000    15.36000000
   H     65.98000000    31.36000000    16.04000000
   H     64.96000000    33.68000000    14.43000000
   H     64.08000000    32.92000000    17.22000000
   H     63.30000000    32.44000000    15.76000000
   N     66.49000000    35.34000000    15.47000000
   C     67.12000000    36.49000000    16.10000000
   C     66.21000000    37.37000000    16.94000000
   O     65.05000000    37.60000000    16.60000000
   H     65.95000000    35.58000000    14.65000000
   H     67.59000000    37.13000000    15.36000000
   H     67.95000000    36.10000000    16.69000000
   N     66.66000000    37.77000000    18.13000000
   C     65.99000000    38.69000000    19.03000000
   C     66.85000000    39.82000000    19.56000000
   O     66.36000000    40.95000000    19.68000000
   C     65.28000000    37.88000000    20.12000000
   C     64.31000000    36.81000000    19.64000000
   N     63.32000000    37.09000000    18.80000000
   O     64.34000000    35.68000000    20.12000000
   H     67.63000000    37.62000000    18.36000000
   H     65.24000000    39.23000000    18.45000000
   H     64.76000000    38.60000000    20.76000000
   H     66.00000000    37.34000000    20.74000000
   H     63.26000000    38.05000000    18.49000000
   H     62.86000000    36.33000000    18.30000000
   N     68.14000000    39.55000000    19.75000000
   C     69.08000000    40.55000000    20.21000000
   C     68.64000000    41.02000000    21.59000000
   O     68.27000000    40.19000000    22.41000000
   H     68.49000000    38.68000000    19.37000000
   H     69.04000000    41.41000000    19.54000000
   H     70.09000000    40.14000000    20.18000000
   N     68.57000000    42.33000000    21.83000000
   C     68.12000000    42.94000000    23.07000000
   C     66.71000000    42.55000000    23.51000000
   O     66.44000000    42.66000000    24.70000000
   C     69.18000000    42.89000000    24.16000000
   C     70.47000000    43.62000000    23.87000000
   C     71.66000000    42.98000000    24.21000000
   C     70.44000000    44.97000000    23.47000000
   C     72.88000000    43.63000000    23.97000000
   C     71.66000000    45.57000000    23.11000000
   C     72.87000000    44.90000000    23.37000000
   O     74.04000000    45.49000000    22.98000000
   H     68.94000000    42.98000000    21.15000000
   H     67.92000000    43.98000000    22.80000000
   H     69.43000000    41.84000000    24.25000000
   H     68.86000000    43.20000000    25.16000000
   H     71.64000000    41.94000000    24.49000000
   H     69.51000000    45.51000000    23.40000000
   H     73.84000000    43.17000000    24.18000000
   H     71.65000000    46.56000000    22.70000000
   H     73.83000000    46.27000000    22.46000000
   N     65.88000000    42.03000000    22.60000000
   C     64.50000000    41.66000000    22.83000000
   C     63.71000000    42.96000000    22.98000000
   O     63.02000000    43.39000000    22.06000000
   C     64.24000000    40.58000000    23.88000000
   C     65.20000000    39.40000000    23.77000000
   C     62.76000000    40.22000000    23.73000000
   C     64.75000000    38.09000000    24.40000000
   H     66.12000000    42.22000000    21.64000000
   H     64.23000000    41.25000000    21.86000000
   H     64.29000000    41.02000000    24.88000000
   H     66.18000000    39.68000000    24.14000000
   H     65.37000000    39.14000000    22.73000000
   H     62.64000000    39.97000000    22.68000000
   H     62.55000000    39.45000000    24.47000000
   H     62.19000000    41.10000000    24.02000000
   H     65.56000000    37.43000000    24.08000000
   H     64.66000000    38.12000000    25.49000000
   H     63.88000000    37.74000000    23.84000000
   N     63.71000000    43.56000000    24.17000000
   C     63.15000000    44.88000000    24.39000000
   C     61.63000000    44.91000000    24.40000000
   O     61.00000000    45.91000000    24.08000000
   C     63.64000000    45.44000000    25.72000000
   O     64.96000000    44.99000000    25.96000000
   H     64.44000000    43.39000000    24.85000000
   H     63.50000000    45.55000000    23.61000000
   H     62.97000000    45.04000000    26.48000000
   H     63.51000000    46.52000000    25.72000000
   H     65.18000000    45.06000000    26.89000000
   N     61.05000000    43.76000000    24.78000000
   C     59.63000000    43.47000000    24.78000000
   C     59.03000000    43.44000000    23.38000000
   O     57.83000000    43.59000000    23.18000000
   C     59.04000000    44.48000000    25.76000000
   H     61.66000000    42.99000000    25.00000000
   H     59.50000000    42.46000000    25.17000000
   H     58.89000000    45.47000000    25.34000000
   H     58.05000000    44.11000000    26.03000000
   H     59.69000000    44.63000000    26.62000000
   N     59.85000000    43.33000000    22.34000000
   C     59.50000000    43.33000000    20.93000000
   C     59.39000000    42.00000000    20.19000000
   O     60.16000000    41.09000000    20.49000000
   C     60.53000000    44.15000000    20.16000000
   H     60.85000000    43.31000000    22.46000000
   H     58.55000000    43.84000000    20.87000000
   H     60.72000000    45.04000000    20.76000000
   H     61.46000000    43.64000000    19.92000000
   H     60.06000000    44.54000000    19.26000000
   N     58.51000000    42.02000000    19.19000000
   C     58.15000000    40.88000000    18.36000000
   C     57.81000000    39.61000000    19.12000000
   O     58.16000000    38.53000000    18.66000000
   C     59.16000000    40.88000000    17.21000000
   C     58.64000000    40.19000000    15.96000000
   C     59.64000000    40.38000000    14.83000000
   O     60.52000000    39.50000000    14.74000000
   O     59.42000000    41.33000000    14.04000000
   H     57.80000000    42.74000000    19.12000000
   H     57.25000000    41.10000000    17.78000000
   H     60.09000000    40.38000000    17.48000000
   H     59.43000000    41.91000000    16.97000000
   H     57.70000000    40.65000000    15.66000000
   H     58.51000000    39.13000000    16.21000000
   N     57.24000000    39.72000000    20.32000000
   C     57.01000000    38.62000000    21.24000000
   H     55.99200000    38.25100000    21.11700000
   H     57.71500000    37.81600000    21.02900000
   H     57.14900000    38.96700000    22.26400000
   H     56.93000000    40.63000000    20.64000000
  Ca     62.92000000    37.97000000    14.96000000
   O     64.75000000    40.36000000    14.54000000
   H     64.60000000    41.30000000    14.40000000
   H     65.63000000    40.32000000    14.93000000
   O     61.15000000    36.92000000    16.78000000
   H     61.06000000    37.24000000    17.68000000
   H     61.31000000    35.98000000    16.87000000
   O     64.86000000    36.93000000    13.55000000
   H     64.75000000    36.46000000    12.72000000
   H     65.51000000    37.61000000    13.35000000
   O     62.66000000    40.23000000    16.52000000
   H     62.55000000    40.33000000    17.47000000
   H     62.24000000    41.01000000    16.15000000
   O     62.61000000    39.71000000    12.75000000
   H     62.96000000    40.41000000    12.19000000
   H     61.82000000    40.09000000    13.14000000
   O     61.21000000    37.06000000    13.03000000
   H     61.26000000    36.29000000    12.46000000
   H     60.29000000    37.30000000    13.03000000

Ca 1.70



