%chk=loop3.cluster184.chk
%nprocshared=48
%mem=10GB
%nosave
#b3lyp/svp scf=(tight,noincore) Test 
#IOP(5/87=12) Density=Current Pop=(MK,readradii) iop(6/33=2) iop(6/42=6)

loop3.cluster184 

   0  1 
   C     95.78000000    57.39000000    30.56000000
   C     96.45000000    56.02000000    30.65000000
   O     96.30000000    55.31000000    31.64000000
   H     94.82500000    57.36200000    31.08400000
   H     96.42300000    58.14100000    31.01900000
   H     95.61200000    57.64500000    29.51400000
   N     97.22000000    55.52000000    29.68000000
   C     98.06000000    54.35000000    29.83000000
   C     99.31000000    54.44000000    30.70000000
   O     99.85000000    55.54000000    30.83000000
   C     98.30000000    53.81000000    28.42000000
   C     99.31000000    52.67000000    28.37000000
   O     99.15000000    51.62000000    29.02000000
   O    100.38000000    52.84000000    27.75000000
   H     97.48000000    56.15000000    28.94000000
   H     97.44000000    53.58000000    30.28000000
   H     98.69000000    54.65000000    27.84000000
   H     97.41000000    53.43000000    27.92000000
   N     99.77000000    53.36000000    31.33000000
   C    100.89000000    53.30000000    32.25000000
   C    102.21000000    53.55000000    31.54000000
   O    103.18000000    53.86000000    32.23000000
   C    100.82000000    52.00000000    33.05000000
   C    101.06000000    50.76000000    32.20000000
   C    100.77000000    49.48000000    32.99000000
   C     99.31000000    49.07000000    33.02000000
   N     99.12000000    47.85000000    33.82000000
   H     99.50000000    52.43000000    31.04000000
   H    100.75000000    54.18000000    32.87000000
   H     99.80000000    52.00000000    33.44000000
   H    101.55000000    51.96000000    33.86000000
   H    102.12000000    50.72000000    31.94000000
   H    100.35000000    50.77000000    31.37000000
   H    101.27000000    49.56000000    33.96000000
   H    101.33000000    48.70000000    32.47000000
   H     98.93000000    48.86000000    32.02000000
   H     98.77000000    49.91000000    33.46000000
   H     99.75000000    47.12000000    33.53000000
   H     99.33000000    47.80000000    34.81000000
   H     98.20000000    47.45000000    33.75000000
   N    102.25000000    53.57000000    30.21000000
   C    103.40000000    54.09000000    29.49000000
   C    103.15000000    55.18000000    28.46000000
   O    104.03000000    55.87000000    27.94000000
   C    104.24000000    53.01000000    28.82000000
   C    103.52000000    52.13000000    27.80000000
   O    103.49000000    52.42000000    26.59000000
   O    102.85000000    51.17000000    28.25000000
   H    101.37000000    53.34000000    29.77000000
   H    104.05000000    54.68000000    30.13000000
   H    104.72000000    52.31000000    29.50000000
   H    105.07000000    53.56000000    28.38000000
   N    101.87000000    55.44000000    28.20000000
   C    101.41000000    56.59000000    27.44000000
   C    101.36000000    56.41000000    25.93000000
   O    100.56000000    57.03000000    25.23000000
   H    101.17000000    54.80000000    28.54000000
   H    102.16000000    57.37000000    27.55000000
   H    100.48000000    57.08000000    27.72000000
   N    102.16000000    55.48000000    25.39000000
   C    102.28000000    55.15000000    23.99000000
   C    101.29000000    54.12000000    23.47000000
   O    100.99000000    53.18000000    24.20000000
   C    103.72000000    54.67000000    23.84000000
   C    104.05000000    54.54000000    22.36000000
   N    104.28000000    55.68000000    21.69000000
   O    104.09000000    53.46000000    21.78000000
   H    102.78000000    55.02000000    26.04000000
   H    102.19000000    56.03000000    23.36000000
   H    103.84000000    53.67000000    24.25000000
   H    104.38000000    55.34000000    24.39000000
   H    104.29000000    56.59000000    22.13000000
   H    104.39000000    55.58000000    20.69000000
   N    100.75000000    54.18000000    22.25000000
   C     99.50000000    53.53000000    21.92000000
   C     99.51000000    52.02000000    21.78000000
   O     98.44000000    51.44000000    21.96000000
   H    101.04000000    54.91000000    21.61000000
   H     99.06000000    54.03000000    21.05000000
   H     98.83000000    53.76000000    22.74000000
   N    100.65000000    51.34000000    21.62000000
   C    100.62000000    49.90000000    21.46000000
   C    100.52000000    49.15000000    22.79000000
   O    100.81000000    49.66000000    23.86000000
   C    101.89000000    49.39000000    20.78000000
   C    102.16000000    49.81000000    19.35000000
   C    101.82000000    49.13000000    18.18000000
   C    102.64000000    51.12000000    19.22000000
   C    102.12000000    49.76000000    16.96000000
   C    102.98000000    51.72000000    18.00000000
   C    102.70000000    51.03000000    16.80000000
   O    102.90000000    51.59000000    15.57000000
   H    101.56000000    51.78000000    21.61000000
   H     99.74000000    49.68000000    20.86000000
   H    101.92000000    48.30000000    20.69000000
   H    102.65000000    49.65000000    21.51000000
   H    101.38000000    48.15000000    18.24000000
   H    102.82000000    51.70000000    20.12000000
   H    101.86000000    49.20000000    16.08000000
   H    103.51000000    52.65000000    17.95000000
   H    103.08000000    52.53000000    15.61000000
   N     99.86000000    48.00000000    22.70000000
   C     99.65000000    46.87000000    23.59000000
   C    100.92000000    46.18000000    24.06000000
   O    101.97000000    46.82000000    23.95000000
   C     98.58000000    47.28000000    24.59000000
   C     98.43000000    46.47000000    25.88000000
   C     97.26000000    47.21000000    23.83000000
   C     97.25000000    46.90000000    26.76000000
   H     99.69000000    47.67000000    21.76000000
   H     99.05000000    46.10000000    23.11000000
   H     98.83000000    48.29000000    24.91000000
   H     99.33000000    46.67000000    26.47000000
   H     98.33000000    45.42000000    25.63000000
   H     96.50000000    47.83000000    24.30000000
   H     97.39000000    47.53000000    22.79000000
   H     97.03000000    46.15000000    23.74000000
   H     97.12000000    46.39000000    27.71000000
   H     97.45000000    47.95000000    26.98000000
   H     96.30000000    46.79000000    26.24000000
   N    100.90000000    44.93000000    24.51000000
   C    101.99000000    44.21000000    25.14000000
   C    101.94000000    42.69000000    25.09000000
   O    102.68000000    42.07000000    25.85000000
   C    102.16000000    44.75000000    26.56000000
   O    100.97000000    44.77000000    27.31000000
   H     99.99000000    44.49000000    24.45000000
   H    102.88000000    44.35000000    24.52000000
   H    102.55000000    45.76000000    26.47000000
   H    102.93000000    44.15000000    27.05000000
   H    101.11000000    44.44000000    28.20000000
   N    101.08000000    42.14000000    24.23000000
   C    100.91000000    40.72000000    24.00000000
   C    100.78000000    39.80000000    25.20000000
   O    101.43000000    38.76000000    25.17000000
   C    101.89000000    40.20000000    22.95000000
   H    100.38000000    42.80000000    23.94000000
   H     99.92000000    40.64000000    23.53000000
   H    102.03000000    40.90000000    22.13000000
   H    102.85000000    39.91000000    23.37000000
   H    101.53000000    39.33000000    22.41000000
   N    100.12000000    40.04000000    26.34000000
   C     99.06000000    41.01000000    26.51000000
   C     97.74000000    40.28000000    26.31000000
   O     97.65000000    39.06000000    26.41000000
   C     99.02000000    41.48000000    27.96000000
   H    100.26000000    39.30000000    27.00000000
   H     99.15000000    41.89000000    25.87000000
   H     98.34000000    42.32000000    28.08000000
   H     98.85000000    40.69000000    28.69000000
   H     99.98000000    41.93000000    28.21000000
   N     96.56000000    40.87000000    26.10000000
   C     96.13000000    42.24000000    26.25000000
   C     95.22000000    42.70000000    25.11000000
   O     95.32000000    43.81000000    24.60000000
   C     95.43000000    42.43000000    27.59000000
   C     95.64000000    43.86000000    28.08000000
   C     95.05000000    44.01000000    29.47000000
   O     94.10000000    44.82000000    29.58000000
   O     95.50000000    43.36000000    30.44000000
   H     95.76000000    40.24000000    26.11000000
   H     96.99000000    42.91000000    26.23000000
   H     95.89000000    41.77000000    28.33000000
   H     94.35000000    42.30000000    27.56000000
   H     95.06000000    44.52000000    27.44000000
   H     96.67000000    44.20000000    28.01000000
   N     94.27000000    41.83000000    24.78000000
   C     93.14000000    42.14000000    23.93000000
   H     92.33500000    42.55700000    24.53500000
   H     93.44100000    42.86700000    23.17600000
   H     92.79300000    41.23000000    23.44000000
   H     94.31000000    40.91000000    25.22000000
  Ca    101.39600000    51.08000000    25.84000000
   O     98.73000000    51.23000000    25.54000000
   H     98.20000000    50.56000000    25.10000000
   H     98.16000000    52.00000000    25.57000000
   O    102.51600000    48.64000000    25.81000000
   H    102.35600000    48.03000000    25.09000000
   H    103.23600000    48.24000000    26.30000000
   O    103.63600000    50.88000000    24.03000000
   H    104.01600000    50.09000000    23.63000000
   H    104.11600000    51.60000000    23.63000000
   O    100.13600000    49.70000000    27.65000000
   H     99.89600000    50.38000000    28.29000000
   H    100.21600000    48.90000000    28.17000000

Ca 1.70



