%chk=loop3.cluster127.chk
%nprocshared=48
%mem=10GB
%nosave
#b3lyp/svp scf=(tight,noincore) Test 
#IOP(5/87=12) Density=Current Pop=(MK,readradii) iop(6/33=2) iop(6/42=6)

loop3.cluster127 

   0  1 
   C    103.92000000   -25.94000000    83.71000000
   C    102.53000000   -26.48000000    83.41000000
   O    101.60000000   -25.74000000    83.09000000
   H    104.59700000   -26.21000000    82.90000000
   H    103.87700000   -24.85500000    83.80000000
   H    104.28300000   -26.36800000    84.64400000
   N    102.34000000   -27.79000000    83.58000000
   C    101.04000000   -28.40000000    83.37000000
   C    100.18000000   -28.66000000    84.59000000
   O    100.62000000   -29.24000000    85.58000000
   C    101.35000000   -29.59000000    82.46000000
   C    100.08000000   -30.30000000    82.01000000
   O     99.90000000   -30.46000000    80.79000000
   O     99.21000000   -30.73000000    82.80000000
   H    103.12000000   -28.43000000    83.51000000
   H    100.41000000   -27.73000000    82.79000000
   H    101.90000000   -30.38000000    82.98000000
   H    101.89000000   -29.25000000    81.58000000
   N     98.87000000   -28.41000000    84.49000000
   C     97.98000000   -28.40000000    85.64000000
   C     97.42000000   -29.73000000    86.12000000
   O     96.75000000   -29.72000000    87.15000000
   C     96.92000000   -27.33000000    85.42000000
   C     97.33000000   -25.88000000    85.17000000
   C     98.46000000   -25.33000000    86.04000000
   C     98.84000000   -23.94000000    85.55000000
   N     99.53000000   -23.15000000    86.59000000
   H     98.44000000   -28.03000000    83.66000000
   H     98.61000000   -27.97000000    86.42000000
   H     96.25000000   -27.28000000    86.28000000
   H     96.37000000   -27.57000000    84.50000000
   H     96.51000000   -25.17000000    85.19000000
   H     97.79000000   -25.74000000    84.19000000
   H     99.33000000   -26.00000000    86.07000000
   H     98.08000000   -25.26000000    87.05000000
   H     97.87000000   -23.54000000    85.27000000
   H     99.48000000   -24.01000000    84.67000000
   H     99.85000000   -22.27000000    86.20000000
   H     98.91000000   -22.89000000    87.34000000
   H    100.36000000   -23.58000000    86.97000000
   N     97.60000000   -30.83000000    85.38000000
   C     96.98000000   -32.10000000    85.70000000
   C     97.91000000   -33.27000000    85.43000000
   O     97.69000000   -34.29000000    86.09000000
   C     95.78000000   -32.24000000    84.77000000
   C     96.01000000   -32.06000000    83.28000000
   O     95.51000000   -31.05000000    82.73000000
   O     96.77000000   -32.79000000    82.60000000
   H     98.19000000   -30.73000000    84.57000000
   H     96.65000000   -32.05000000    86.74000000
   H     95.11000000   -31.47000000    85.16000000
   H     95.27000000   -33.19000000    84.88000000
   N     98.91000000   -33.09000000    84.57000000
   C     99.90000000   -34.14000000    84.47000000
   C     99.54000000   -35.42000000    83.73000000
   O    100.14000000   -36.45000000    84.04000000
   H     99.12000000   -32.20000000    84.14000000
   H    100.23000000   -34.47000000    85.45000000
   H    100.81000000   -33.81000000    83.97000000
   N     98.41000000   -35.40000000    83.02000000
   C     97.85000000   -36.56000000    82.36000000
   C     98.66000000   -36.98000000    81.14000000
   O     99.29000000   -36.14000000    80.50000000
   C     96.34000000   -36.39000000    82.22000000
   C     95.81000000   -35.77000000    80.93000000
   N     95.70000000   -34.45000000    80.80000000
   O     95.51000000   -36.57000000    80.04000000
   H     97.92000000   -34.52000000    82.99000000
   H     97.90000000   -37.40000000    83.05000000
   H     96.02000000   -35.98000000    83.17000000
   H     96.04000000   -37.44000000    82.17000000
   H     95.97000000   -33.86000000    81.57000000
   H     95.40000000   -34.05000000    79.92000000
   N     98.60000000   -38.26000000    80.76000000
   C     99.47000000   -38.76000000    79.72000000
   C     98.78000000   -39.85000000    78.91000000
   O     99.24000000   -40.22000000    77.84000000
   H     98.26000000   -38.94000000    81.42000000
   H    100.44000000   -39.11000000    80.08000000
   H     99.71000000   -37.95000000    79.02000000
   N     97.62000000   -40.36000000    79.34000000
   C     97.09000000   -41.57000000    78.73000000
   C     96.07000000   -41.14000000    77.69000000
   O     95.07000000   -40.54000000    78.08000000
   C     96.64000000   -42.54000000    79.82000000
   C     96.32000000   -43.87000000    79.18000000
   C     95.00000000   -44.31000000    79.12000000
   C     97.39000000   -44.61000000    78.65000000
   C     94.73000000   -45.54000000    78.50000000
   C     97.10000000   -45.78000000    77.93000000
   C     95.78000000   -46.25000000    77.88000000
   O     95.48000000   -47.39000000    77.18000000
   H     97.20000000   -39.96000000    80.17000000
   H     97.91000000   -42.00000000    78.15000000
   H     95.76000000   -42.12000000    80.30000000
   H     97.40000000   -42.60000000    80.60000000
   H     94.18000000   -43.71000000    79.48000000
   H     98.42000000   -44.30000000    78.74000000
   H     93.72000000   -45.91000000    78.43000000
   H     97.94000000   -46.32000000    77.52000000
   H     96.27000000   -47.81000000    76.85000000
   N     96.41000000   -41.30000000    76.41000000
   C     95.62000000   -40.87000000    75.28000000
   C     94.25000000   -41.50000000    75.08000000
   O     93.44000000   -41.56000000    76.00000000
   C     95.73000000   -39.36000000    75.15000000
   C     94.71000000   -38.73000000    74.20000000
   C     97.14000000   -38.91000000    74.79000000
   C     94.76000000   -37.23000000    73.94000000
   H     97.24000000   -41.84000000    76.18000000
   H     96.12000000   -41.37000000    74.45000000
   H     95.53000000   -38.94000000    76.14000000
   H     93.70000000   -39.04000000    74.48000000
   H     94.80000000   -39.23000000    73.23000000
   H     97.45000000   -39.08000000    73.76000000
   H     97.28000000   -37.83000000    74.88000000
   H     97.81000000   -39.40000000    75.50000000
   H     95.55000000   -37.03000000    73.22000000
   H     93.84000000   -36.80000000    73.54000000
   H     95.02000000   -36.70000000    74.86000000
   N     93.97000000   -41.83000000    73.82000000
   C     92.72000000   -42.38000000    73.31000000
   C     92.72000000   -43.32000000    72.12000000
   O     91.82000000   -44.14000000    72.02000000
   C     91.72000000   -41.25000000    73.10000000
   O     92.41000000   -40.24000000    72.40000000
   H     94.76000000   -41.74000000    73.20000000
   H     92.23000000   -42.92000000    74.12000000
   H     91.36000000   -40.92000000    74.07000000
   H     90.88000000   -41.75000000    72.61000000
   H     92.01000000   -39.38000000    72.57000000
   N     93.75000000   -43.30000000    71.26000000
   C     93.83000000   -43.88000000    69.93000000
   C     92.56000000   -44.06000000    69.12000000
   O     92.06000000   -45.16000000    68.90000000
   C     94.60000000   -45.18000000    70.13000000
   H     94.52000000   -42.69000000    71.49000000
   H     94.45000000   -43.22000000    69.32000000
   H     95.63000000   -44.88000000    70.28000000
   H     94.23000000   -45.71000000    71.01000000
   H     94.48000000   -45.81000000    69.25000000
   N     91.79000000   -43.02000000    68.80000000
   C     92.02000000   -41.61000000    69.03000000
   C     92.52000000   -40.82000000    67.83000000
   O     92.06000000   -41.06000000    66.72000000
   C     90.70000000   -40.97000000    69.46000000
   H     91.03000000   -43.20000000    68.16000000
   H     92.67000000   -41.53000000    69.90000000
   H     89.86000000   -41.19000000    68.80000000
   H     90.32000000   -41.44000000    70.36000000
   H     90.68000000   -39.90000000    69.68000000
   N     93.39000000   -39.80000000    67.88000000
   C     94.02000000   -39.21000000    69.04000000
   C     95.53000000   -39.40000000    68.96000000
   O     96.15000000   -39.66000000    69.99000000
   C     93.67000000   -37.73000000    69.22000000
   C     94.37000000   -36.99000000    70.35000000
   C     94.11000000   -35.50000000    70.17000000
   O     92.95000000   -35.05000000    70.29000000
   O     95.14000000   -34.81000000    70.05000000
   H     93.60000000   -39.37000000    66.99000000
   H     93.64000000   -39.72000000    69.92000000
   H     92.60000000   -37.66000000    69.38000000
   H     94.00000000   -37.23000000    68.31000000
   H     95.45000000   -37.13000000    70.20000000
   H     94.01000000   -37.35000000    71.31000000
   N     96.12000000   -39.37000000    67.77000000
   C     97.45000000   -39.88000000    67.53000000
   H     98.14200000   -39.44300000    68.25000000
   H     97.44900000   -40.96400000    67.64000000
   H     97.76400000   -39.61700000    66.52000000
   H     95.59000000   -39.11000000    66.94000000
  Ca     97.45000000   -31.04300000    80.86000000
   O     97.42000000   -28.57300000    81.48000000
   H     98.12000000   -28.00300000    81.16000000
   H     96.64000000   -28.01300000    81.48000000
   O     95.37000000   -29.57300000    79.73000000
   H     94.45000000   -29.83300000    79.84000000
   H     95.36000000   -28.92300000    79.03000000
   O     99.06000000   -33.38300000    80.01000000
   H     99.02000000   -33.29300000    79.06000000
   H     99.18000000   -34.31300000    80.17000000
   O     95.98000000   -32.18300000    78.93000000
   H     96.25000000   -32.50300000    78.07000000
   H     95.08000000   -31.90300000    78.80000000
   O     98.35000000   -29.59300000    78.84000000
   H     99.20000000   -30.02300000    78.73000000
   H     98.31000000   -28.94300000    78.13000000

Ca 1.70



