%chk=loop3.cluster152.chk
%nprocshared=48
%mem=10GB
%nosave
#b3lyp/svp scf=(tight,noincore) Test 
#IOP(5/87=12) Density=Current Pop=(MK,readradii) iop(6/33=2) iop(6/42=6)

loop3.cluster152 

   0  1 
   C     54.05000000    55.31000000    43.23000000
   C     53.70000000    55.82000000    44.62000000
   O     52.57000000    55.74000000    45.10000000
   H     55.08300000    54.96200000    43.22100000
   H     53.38700000    54.48500000    42.96700000
   H     53.93200000    56.11600000    42.50600000
   N     54.66000000    56.41000000    45.33000000
   C     54.74000000    56.67000000    46.75000000
   C     53.85000000    57.78000000    47.28000000
   O     54.37000000    58.81000000    47.70000000
   C     54.76000000    55.35000000    47.53000000
   C     55.83000000    54.38000000    47.04000000
   O     55.60000000    53.53000000    46.15000000
   O     56.85000000    54.43000000    47.76000000
   H     55.55000000    56.55000000    44.86000000
   H     55.77000000    56.98000000    46.88000000
   H     53.77000000    54.91000000    47.50000000
   H     55.03000000    55.57000000    48.56000000
   N     52.53000000    57.56000000    47.27000000
   C     51.52000000    58.33000000    47.96000000
   C     51.95000000    58.88000000    49.31000000
   O     51.51000000    59.97000000    49.67000000
   C     50.21000000    57.55000000    47.99000000
   C     50.17000000    56.51000000    49.11000000
   C     51.14000000    55.35000000    48.93000000
   C     50.99000000    54.36000000    50.07000000
   N     51.64000000    54.90000000    51.28000000
   H     52.25000000    56.77000000    46.71000000
   H     51.32000000    59.22000000    47.36000000
   H     49.94000000    57.13000000    47.02000000
   H     49.34000000    58.14000000    48.28000000
   H     49.17000000    56.07000000    49.10000000
   H     50.26000000    57.10000000    50.03000000
   H     52.15000000    55.78000000    48.93000000
   H     50.90000000    54.88000000    47.97000000
   H     51.48000000    53.43000000    49.80000000
   H     49.93000000    54.13000000    50.21000000
   H     51.47000000    54.42000000    52.15000000
   H     52.63000000    54.99000000    51.12000000
   H     51.27000000    55.75000000    51.68000000
   N     52.88000000    58.18000000    49.97000000
   C     53.80000000    58.53000000    51.02000000
   C     54.46000000    57.27000000    51.56000000
   O     54.09000000    56.17000000    51.16000000
   C     53.14000000    59.26000000    52.19000000
   C     51.80000000    58.69000000    52.63000000
   O     51.12000000    59.36000000    53.44000000
   O     51.36000000    57.54000000    52.41000000
   H     52.96000000    57.20000000    49.72000000
   H     54.68000000    59.12000000    50.77000000
   H     52.90000000    60.30000000    51.96000000
   H     53.77000000    59.33000000    53.08000000
   N     55.41000000    57.36000000    52.50000000
   C     56.20000000    56.30000000    53.10000000
   C     55.46000000    55.53000000    54.18000000
   O     54.53000000    56.03000000    54.81000000
   H     55.78000000    58.27000000    52.72000000
   H     57.09000000    56.81000000    53.48000000
   H     56.57000000    55.63000000    52.33000000
   N     56.01000000    54.38000000    54.59000000
   C     55.61000000    53.47000000    55.64000000
   C     56.70000000    52.73000000    56.40000000
   O     56.42000000    51.73000000    57.06000000
   C     54.56000000    52.52000000    55.07000000
   C     53.24000000    53.10000000    54.59000000
   N     52.28000000    53.36000000    55.48000000
   O     53.05000000    53.31000000    53.40000000
   H     56.88000000    54.24000000    54.09000000
   H     55.11000000    53.99000000    56.46000000
   H     54.28000000    51.73000000    55.76000000
   H     54.97000000    51.99000000    54.21000000
   H     52.37000000    53.25000000    56.48000000
   H     51.41000000    53.77000000    55.15000000
   N     58.00000000    53.00000000    56.27000000
   C     59.03000000    52.19000000    56.89000000
   C     59.09000000    50.86000000    56.16000000
   O     59.00000000    50.86000000    54.94000000
   H     58.36000000    53.79000000    55.75000000
   H     58.83000000    52.10000000    57.96000000
   H     59.97000000    52.74000000    56.81000000
   N     59.24000000    49.73000000    56.85000000
   C     59.25000000    48.37000000    56.35000000
   C     57.96000000    47.89000000    55.69000000
   O     57.86000000    46.68000000    55.49000000
   C     60.58000000    48.11000000    55.65000000
   C     61.84000000    48.27000000    56.46000000
   C     62.35000000    47.20000000    57.21000000
   C     62.56000000    49.47000000    56.49000000
   C     63.53000000    47.32000000    57.96000000
   C     63.76000000    49.61000000    57.19000000
   C     64.20000000    48.57000000    58.03000000
   O     65.25000000    48.78000000    58.86000000
   H     59.46000000    49.88000000    57.83000000
   H     59.27000000    47.80000000    57.28000000
   H     60.75000000    48.60000000    54.69000000
   H     60.52000000    47.04000000    55.46000000
   H     61.88000000    46.23000000    57.28000000
   H     62.30000000    50.37000000    55.96000000
   H     64.00000000    46.47000000    58.43000000
   H     64.24000000    50.58000000    57.17000000
   H     65.55000000    49.69000000    58.76000000
   N     57.09000000    48.83000000    55.31000000
   C     55.81000000    48.59000000    54.68000000
   C     54.84000000    47.76000000    55.51000000
   O     53.74000000    48.25000000    55.78000000
   C     56.02000000    47.99000000    53.29000000
   C     56.90000000    48.80000000    52.34000000
   C     54.72000000    47.65000000    52.58000000
   C     56.24000000    50.10000000    51.91000000
   H     57.26000000    49.82000000    55.47000000
   H     55.27000000    49.53000000    54.56000000
   H     56.56000000    47.05000000    53.38000000
   H     57.09000000    48.20000000    51.46000000
   H     57.83000000    49.08000000    52.85000000
   H     54.81000000    47.29000000    51.55000000
   H     54.25000000    46.82000000    53.10000000
   H     53.98000000    48.45000000    52.62000000
   H     57.01000000    50.68000000    51.39000000
   H     55.37000000    49.90000000    51.29000000
   H     55.99000000    50.70000000    52.78000000
   N     55.07000000    46.58000000    56.07000000
   C     54.23000000    45.99000000    57.10000000
   C     52.83000000    45.64000000    56.61000000
   O     51.86000000    45.68000000    57.36000000
   C     54.96000000    44.70000000    57.50000000
   O     55.15000000    43.91000000    56.35000000
   H     56.02000000    46.24000000    56.02000000
   H     54.15000000    46.70000000    57.92000000
   H     54.32000000    44.19000000    58.22000000
   H     55.92000000    44.98000000    57.93000000
   H     54.93000000    42.99000000    56.48000000
   N     52.66000000    45.44000000    55.30000000
   C     51.44000000    45.44000000    54.53000000
   C     50.55000000    46.68000000    54.48000000
   O     49.48000000    46.67000000    53.89000000
   C     50.71000000    44.14000000    54.82000000
   H     53.55000000    45.24000000    54.85000000
   H     51.72000000    45.43000000    53.48000000
   H     51.38000000    43.29000000    54.90000000
   H     50.25000000    44.28000000    55.80000000
   H     49.92000000    43.95000000    54.09000000
   N     50.95000000    47.76000000    55.16000000
   C     50.18000000    48.99000000    55.18000000
   C     50.10000000    49.71000000    53.84000000
   O     51.05000000    49.82000000    53.07000000
   C     50.75000000    49.87000000    56.28000000
   H     51.92000000    47.93000000    55.40000000
   H     49.15000000    48.65000000    55.30000000
   H     51.79000000    50.11000000    56.06000000
   H     50.19000000    50.80000000    56.36000000
   H     50.79000000    49.23000000    57.17000000
   N     48.97000000    50.39000000    53.65000000
   C     48.70000000    51.28000000    52.54000000
   C     48.98000000    50.85000000    51.11000000
   O     48.71000000    51.64000000    50.20000000
   C     49.31000000    52.65000000    52.81000000
   C     48.74000000    53.30000000    54.07000000
   C     49.23000000    54.73000000    54.25000000
   O     48.60000000    55.45000000    55.06000000
   O     50.39000000    55.06000000    53.92000000
   H     48.22000000    50.16000000    54.29000000
   H     47.64000000    51.54000000    52.60000000
   H     49.24000000    53.37000000    52.00000000
   H     50.35000000    52.53000000    53.12000000
   H     48.98000000    52.68000000    54.94000000
   H     47.65000000    53.28000000    54.00000000
   N     49.23000000    49.57000000    50.86000000
   C     49.39000000    48.92000000    49.57000000
   H     50.44100000    48.67700000    49.41400000
   H     48.79900000    48.00400000    49.54800000
   H     49.05200000    49.59100000    48.78000000
   H     49.25000000    48.89000000    51.61000000
  Ca     50.40000000    57.47000000    54.95000000
   O     51.25000000    55.89000000    56.93000000
   H     50.80000000    55.53000000    57.69000000
   H     52.14000000    56.04000000    57.23000000
   O     53.05000000    58.17000000    55.28000000
   H     53.55000000    57.40000000    55.02000000
   H     53.64000000    58.64000000    55.88000000
   O     48.62000000    57.62000000    56.99000000
   H     47.86000000    58.18000000    56.81000000
   H     48.27000000    56.73000000    56.92000000
   O     48.15000000    58.66000000    54.25000000
   H     47.36000000    58.52000000    54.77000000
   H     47.89000000    59.31000000    53.60000000
   O     50.69000000    59.60000000    56.70000000
   H     51.52000000    60.05000000    56.57000000
   H     50.25000000    60.10000000    57.39000000

Ca 1.70



