%chk=loop4.cluster10.chk
%nprocshared=48
%mem=10GB
%nosave
#b3lyp/svp scf=(tight,noincore) Test 
#IOP(5/87=12) Density=Current Pop=(MK,readradii) iop(6/33=2) iop(6/42=6)

loop4.cluster10 

   -3  1 
   C     47.28000000    37.05000000    49.58000000
   C     47.38000000    36.78000000    51.07000000
   O     48.26000000    37.43000000    51.64000000
   H     46.85600000    38.04100000    49.41900000
   H     48.27400000    37.00400000    49.13400000
   H     46.63800000    36.30100000    49.11700000
   N     46.63000000    35.84000000    51.64000000
   C     46.76000000    35.37000000    53.01000000
   C     46.55000000    36.39000000    54.12000000
   O     47.24000000    36.43000000    55.13000000
   C     48.08000000    34.63000000    53.18000000
   C     48.39000000    33.66000000    52.04000000
   O     49.47000000    33.72000000    51.42000000
   O     47.64000000    32.70000000    51.76000000
   H     46.04000000    35.39000000    50.95000000
   H     46.10000000    34.51000000    53.14000000
   H     48.03000000    33.96000000    54.04000000
   H     48.90000000    35.35000000    53.29000000
   N     45.69000000    37.40000000    53.93000000
   C     45.40000000    38.49000000    54.83000000
   C     44.39000000    37.96000000    55.85000000
   O     43.39000000    37.34000000    55.51000000
   C     45.18000000    39.77000000    54.03000000
   C     46.44000000    40.50000000    53.56000000
   C     44.13000000    40.68000000    54.66000000
   C     46.33000000    41.82000000    52.81000000
   H     45.14000000    37.42000000    53.09000000
   H     46.28000000    38.68000000    55.44000000
   H     44.62000000    39.48000000    53.14000000
   H     47.05000000    39.78000000    53.01000000
   H     47.07000000    40.70000000    54.43000000
   H     43.18000000    40.16000000    54.76000000
   H     44.56000000    41.00000000    55.61000000
   H     44.03000000    41.56000000    54.02000000
   H     47.28000000    41.87000000    52.29000000
   H     45.55000000    41.64000000    52.07000000
   H     46.18000000    42.72000000    53.42000000
   N     44.37000000    38.33000000    57.13000000
   C     45.44000000    39.00000000    57.84000000
   C     46.61000000    38.12000000    58.29000000
   O     47.77000000    38.53000000    58.26000000
   C     44.81000000    39.94000000    58.87000000
   C     43.59000000    40.73000000    58.42000000
   O     42.44000000    40.23000000    58.48000000
   O     43.85000000    41.87000000    57.99000000
   H     43.64000000    37.93000000    57.69000000
   H     45.96000000    39.67000000    57.16000000
   H     45.57000000    40.65000000    59.19000000
   H     44.46000000    39.33000000    59.70000000
   N     46.23000000    36.99000000    58.88000000
   C     47.07000000    36.19000000    59.75000000
   C     47.59000000    37.07000000    60.87000000
   O     46.80000000    37.74000000    61.54000000
   H     45.25000000    36.76000000    58.77000000
   H     47.87000000    35.69000000    59.19000000
   H     46.51000000    35.32000000    60.09000000
   N     48.84000000    36.85000000    61.28000000
   C     49.54000000    37.68000000    62.23000000
   C     50.01000000    39.02000000    61.67000000
   O     50.23000000    39.92000000    62.48000000
   C     50.67000000    36.88000000    62.87000000
   C     50.25000000    35.72000000    63.77000000
   O     50.40000000    34.55000000    63.37000000
   O     49.80000000    35.94000000    64.92000000
   H     49.38000000    36.12000000    60.84000000
   H     48.86000000    38.01000000    63.02000000
   H     51.25000000    37.62000000    63.42000000
   H     51.32000000    36.46000000    62.11000000
   N     50.02000000    39.23000000    60.35000000
   C     50.33000000    40.47000000    59.67000000
   C     51.78000000    40.86000000    59.44000000
   O     52.03000000    41.72000000    58.60000000
   H     49.89000000    38.39000000    59.80000000
   H     49.96000000    41.40000000    60.10000000
   H     49.95000000    40.42000000    58.65000000
   N     52.65000000    40.16000000    60.18000000
   C     54.10000000    40.17000000    60.08000000
   C     54.70000000    40.20000000    58.68000000
   O     55.52000000    41.07000000    58.40000000
   C     54.60000000    41.30000000    60.99000000
   C     54.33000000    41.13000000    62.48000000
   C     54.90000000    42.20000000    63.39000000
   N     54.28000000    42.43000000    64.55000000
   O     55.96000000    42.79000000    63.19000000
   H     52.33000000    39.30000000    60.60000000
   H     54.51000000    39.27000000    60.54000000
   H     54.22000000    42.25000000    60.63000000
   H     55.68000000    41.34000000    60.88000000
   H     54.65000000    40.16000000    62.86000000
   H     53.27000000    41.23000000    62.72000000
   H     53.58000000    41.80000000    64.92000000
   H     54.56000000    43.17000000    65.18000000
   N     54.18000000    39.36000000    57.79000000
   C     54.71000000    39.24000000    56.44000000
   C     55.96000000    38.39000000    56.26000000
   O     56.13000000    37.33000000    56.85000000
   C     53.65000000    38.93000000    55.38000000
   C     52.77000000    37.78000000    55.86000000
   C     52.65000000    40.04000000    55.08000000
   H     53.46000000    38.68000000    58.00000000
   H     55.07000000    40.25000000    56.26000000
   H     54.11000000    38.62000000    54.45000000
   H     52.19000000    37.99000000    56.76000000
   H     52.22000000    37.43000000    54.98000000
   H     53.42000000    36.92000000    56.07000000
   H     53.22000000    40.77000000    54.51000000
   H     51.90000000    39.55000000    54.45000000
   H     52.29000000    40.53000000    55.98000000
   N     56.77000000    38.72000000    55.25000000
   C     57.92000000    37.98000000    54.79000000
   C     58.13000000    37.98000000    53.28000000
   O     58.29000000    39.02000000    52.64000000
   C     59.07000000    38.51000000    55.64000000
   C     60.40000000    37.80000000    55.41000000
   N     60.47000000    36.50000000    55.66000000
   O     61.26000000    38.43000000    54.80000000
   H     56.52000000    39.55000000    54.73000000
   H     57.75000000    36.93000000    55.01000000
   H     58.72000000    38.48000000    56.67000000
   H     59.25000000    39.54000000    55.36000000
   H     59.67000000    36.00000000    56.04000000
   H     61.22000000    35.88000000    55.39000000
   N     58.28000000    36.83000000    52.62000000
   C     58.49000000    36.63000000    51.20000000
   C     58.14000000    35.23000000    50.73000000
   O     58.85000000    34.64000000    49.92000000
   C     59.90000000    37.11000000    50.85000000
   C     60.04000000    37.64000000    49.45000000
   C     59.41000000    38.85000000    49.14000000
   C     60.67000000    36.91000000    48.43000000
   C     59.58000000    39.34000000    47.84000000
   C     60.72000000    37.32000000    47.09000000
   C     60.26000000    38.63000000    46.84000000
   O     60.29000000    39.21000000    45.60000000
   H     58.31000000    35.97000000    53.16000000
   H     57.72000000    37.21000000    50.68000000
   H     60.57000000    36.27000000    50.72000000
   H     60.28000000    37.86000000    51.55000000
   H     58.83000000    39.41000000    49.86000000
   H     61.14000000    35.98000000    48.71000000
   H     59.12000000    40.30000000    47.64000000
   H     61.07000000    36.63000000    46.34000000
   H     60.66000000    38.64000000    44.92000000
   N     57.02000000    34.67000000    51.18000000
   C     56.67000000    33.28000000    50.99000000
   C     56.41000000    32.87000000    49.54000000
   O     56.88000000    31.83000000    49.08000000
   C     55.60000000    32.94000000    52.02000000
   C     55.01000000    31.54000000    51.93000000
   C     54.16000000    31.45000000    53.18000000
   O     53.11000000    32.12000000    53.31000000
   O     54.59000000    30.81000000    54.17000000
   H     56.46000000    35.26000000    51.80000000
   H     57.52000000    32.67000000    51.29000000
   H     54.87000000    33.73000000    51.82000000
   H     56.09000000    33.07000000    52.99000000
   H     55.82000000    30.80000000    51.95000000
   H     54.35000000    31.43000000    51.07000000
   N     55.62000000    33.60000000    48.75000000
   C     54.74000000    34.72000000    48.99000000
   C     54.93000000    35.75000000    47.88000000
   O     55.88000000    35.66000000    47.11000000
   C     53.32000000    34.21000000    49.20000000
   C     52.73000000    33.37000000    48.06000000
   C     51.36000000    32.82000000    48.40000000
   O     50.32000000    33.45000000    48.12000000
   O     51.25000000    31.74000000    49.02000000
   H     55.76000000    33.34000000    47.78000000
   H     54.98000000    35.21000000    49.93000000
   H     52.71000000    35.10000000    49.38000000
   H     53.40000000    33.68000000    50.14000000
   H     53.36000000    32.48000000    47.97000000
   H     52.73000000    33.79000000    47.06000000
   N     54.02000000    36.73000000    47.86000000
   C     53.90000000    37.88000000    46.98000000
   H     53.22500000    38.61000000    47.42700000
   H     54.88100000    38.33300000    46.83700000
   H     53.50200000    37.56100000    46.01700000
   H     53.35000000    36.80000000    48.61000000
  Ca     48.60000000    31.94000000    49.47000000
   O     49.04000000    29.50000000    50.44000000
   H     48.61000000    28.68000000    50.19000000
   H     49.75000000    29.23000000    51.03000000
   O     47.87000000    31.03000000    47.22000000
   H     47.04000000    31.19000000    46.77000000
   H     48.25000000    30.29000000    46.74000000
   O     46.29000000    30.75000000    49.64000000
   H     45.62000000    31.39000000    49.85000000
   H     45.91000000    30.21000000    48.95000000

Ca 1.70



