%chk=loop3.cluster54.chk
%nprocshared=48
%mem=10GB
%nosave
#b3lyp/svp scf=(tight,noincore) Test 
#IOP(5/87=12) Density=Current Pop=(MK,readradii) iop(6/33=2) iop(6/42=6)

loop3.cluster54 

   0  1 
   C    104.79000000    43.70000000    14.14000000
   C    106.15000000    43.34000000    13.57000000
   O    106.34000000    42.25000000    13.03000000
   H    104.04600000    42.98800000    13.78100000
   H    104.83100000    43.66400000    15.22900000
   H    104.51500000    44.70500000    13.81900000
   N    107.15000000    44.23000000    13.63000000
   C    108.54000000    43.90000000    13.37000000
   C    109.32000000    43.37000000    14.56000000
   O    108.86000000    43.41000000    15.70000000
   C    109.26000000    45.14000000    12.85000000
   C    109.22000000    46.35000000    13.78000000
   O    108.14000000    46.96000000    13.90000000
   O    110.20000000    46.78000000    14.42000000
   H    106.97000000    45.12000000    14.06000000
   H    108.59000000    43.17000000    12.57000000
   H    108.82000000    45.43000000    11.89000000
   H    110.27000000    44.87000000    12.56000000
   N    110.53000000    42.91000000    14.23000000
   C    111.49000000    42.46000000    15.21000000
   C    112.42000000    41.42000000    14.58000000
   O    113.28000000    41.75000000    13.77000000
   C    112.24000000    43.68000000    15.73000000
   C    113.25000000    43.38000000    16.84000000
   C    113.72000000    44.63000000    17.58000000
   C    114.29000000    44.32000000    18.96000000
   N    115.45000000    43.42000000    18.99000000
   H    110.82000000    43.07000000    13.28000000
   H    110.92000000    41.95000000    15.98000000
   H    111.53000000    44.45000000    16.01000000
   H    112.76000000    44.08000000    14.86000000
   H    114.13000000    42.80000000    16.57000000
   H    112.80000000    42.71000000    17.58000000
   H    112.90000000    45.34000000    17.66000000
   H    114.45000000    45.16000000    16.96000000
   H    113.51000000    43.83000000    19.55000000
   H    114.53000000    45.21000000    19.55000000
   H    116.07000000    43.53000000    18.20000000
   H    116.00000000    43.55000000    19.83000000
   H    115.21000000    42.44000000    18.95000000
   N    112.17000000    40.15000000    14.90000000
   C    112.78000000    39.02000000    14.22000000
   C    112.35000000    38.97000000    12.76000000
   O    113.20000000    38.67000000    11.92000000
   C    112.50000000    37.65000000    14.85000000
   C    111.01000000    37.41000000    15.04000000
   O    110.59000000    36.37000000    14.49000000
   O    110.37000000    38.16000000    15.80000000
   H    111.50000000    39.91000000    15.61000000
   H    113.85000000    39.15000000    14.32000000
   H    112.95000000    37.55000000    15.84000000
   H    112.83000000    36.88000000    14.16000000
   N    111.13000000    39.31000000    12.33000000
   C    110.75000000    39.38000000    10.94000000
   C    109.46000000    40.15000000    10.72000000
   O    108.65000000    40.45000000    11.60000000
   H    110.54000000    39.71000000    13.05000000
   H    110.65000000    38.34000000    10.65000000
   H    111.51000000    39.82000000    10.28000000
   N    109.19000000    40.51000000     9.46000000
   C    109.91000000    40.29000000     8.23000000
   C    108.91000000    40.21000000     7.08000000
   O    108.23000000    41.21000000     6.83000000
   C    110.95000000    41.38000000     8.01000000
   C    111.85000000    41.22000000     6.79000000
   N    112.57000000    42.30000000     6.45000000
   O    112.03000000    40.18000000     6.16000000
   H    108.28000000    40.96000000     9.41000000
   H    110.34000000    39.29000000     8.23000000
   H    111.62000000    41.39000000     8.87000000
   H    110.53000000    42.38000000     7.97000000
   H    112.47000000    43.15000000     6.98000000
   H    113.08000000    42.28000000     5.58000000
   N    108.79000000    39.16000000     6.26000000
   C    109.42000000    37.86000000     6.42000000
   C    108.87000000    37.07000000     7.60000000
   O    108.36000000    37.60000000     8.59000000
   H    108.07000000    39.20000000     5.56000000
   H    110.49000000    37.87000000     6.63000000
   H    109.22000000    37.22000000     5.56000000
   N    108.99000000    35.75000000     7.44000000
   C    108.47000000    34.71000000     8.30000000
   C    109.45000000    33.55000000     8.47000000
   O    110.33000000    33.41000000     7.62000000
   C    107.18000000    34.17000000     7.67000000
   C    105.96000000    35.05000000     7.53000000
   C    105.19000000    35.39000000     8.64000000
   C    105.65000000    35.58000000     6.27000000
   C    104.03000000    36.15000000     8.43000000
   C    104.55000000    36.42000000     6.10000000
   C    103.67000000    36.69000000     7.18000000
   O    102.54000000    37.44000000     7.00000000
   H    109.66000000    35.42000000     6.76000000
   H    108.26000000    35.17000000     9.27000000
   H    106.81000000    33.34000000     8.26000000
   H    107.44000000    33.71000000     6.72000000
   H    105.45000000    35.06000000     9.63000000
   H    106.21000000    35.41000000     5.36000000
   H    103.35000000    36.43000000     9.22000000
   H    104.43000000    36.91000000     5.14000000
   H    102.57000000    37.81000000     6.11000000
   N    109.30000000    32.72000000     9.50000000
   C    109.87000000    31.39000000     9.62000000
   C    108.86000000    30.27000000     9.40000000
   O    109.24000000    29.13000000     9.16000000
   C    110.79000000    31.26000000    10.83000000
   C    110.04000000    30.80000000    12.08000000
   C    111.98000000    30.34000000    10.56000000
   C    110.75000000    30.92000000    13.42000000
   H    108.76000000    32.94000000    10.32000000
   H    110.55000000    31.21000000     8.78000000
   H    111.14000000    32.24000000    11.16000000
   H    109.75000000    29.76000000    11.94000000
   H    109.11000000    31.36000000    12.15000000
   H    112.48000000    30.61000000     9.63000000
   H    112.70000000    30.46000000    11.37000000
   H    111.56000000    29.34000000    10.45000000
   H    110.08000000    30.64000000    14.23000000
   H    111.52000000    30.16000000    13.54000000
   H    111.19000000    31.90000000    13.62000000
   N    107.57000000    30.61000000     9.47000000
   C    106.53000000    29.62000000     9.27000000
   C    106.11000000    28.74000000    10.43000000
   O    105.34000000    27.78000000    10.32000000
   C    105.31000000    30.26000000     8.60000000
   O    104.78000000    31.07000000     9.62000000
   H    107.22000000    31.56000000     9.49000000
   H    106.89000000    29.05000000     8.41000000
   H    104.61000000    29.49000000     8.28000000
   H    105.74000000    30.89000000     7.82000000
   H    104.23000000    31.71000000     9.16000000
   N    106.73000000    29.06000000    11.57000000
   C    106.64000000    28.44000000    12.87000000
   C    106.09000000    29.40000000    13.91000000
   O    106.64000000    30.49000000    14.05000000
   C    108.03000000    27.89000000    13.19000000
   H    107.46000000    29.75000000    11.49000000
   H    105.91000000    27.63000000    12.78000000
   H    108.50000000    27.39000000    12.34000000
   H    108.68000000    28.61000000    13.67000000
   H    107.80000000    27.11000000    13.93000000
   N    104.94000000    29.12000000    14.53000000
   C    104.28000000    29.97000000    15.51000000
   C    104.30000000    31.45000000    15.16000000
   O    104.49000000    32.29000000    16.04000000
   C    104.81000000    29.63000000    16.90000000
   H    104.47000000    28.28000000    14.24000000
   H    103.25000000    29.62000000    15.47000000
   H    104.93000000    28.57000000    17.10000000
   H    105.76000000    30.15000000    16.79000000
   H    104.18000000    30.23000000    17.55000000
   N    104.28000000    31.89000000    13.90000000
   C    104.45000000    33.25000000    13.45000000
   C    103.23000000    34.14000000    13.65000000
   O    103.35000000    35.36000000    13.72000000
   C    104.82000000    33.26000000    11.97000000
   C    106.25000000    33.01000000    11.50000000
   C    107.19000000    34.17000000    11.81000000
   O    108.39000000    33.88000000    12.02000000
   O    106.83000000    35.36000000    11.85000000
   H    104.07000000    31.22000000    13.16000000
   H    105.31000000    33.66000000    13.99000000
   H    104.52000000    34.20000000    11.51000000
   H    104.15000000    32.56000000    11.47000000
   H    106.37000000    32.95000000    10.42000000
   H    106.70000000    32.10000000    11.91000000
   N    102.05000000    33.53000000    13.83000000
   C    100.75000000    34.15000000    13.71000000
   H    100.04100000    33.63400000    14.35700000
   H    100.81700000    35.19700000    14.00700000
   H    100.41000000    34.08600000    12.67600000
   H    102.02000000    32.52000000    13.88000000
  Ca    106.55600000    39.53000000    13.31000000
   O    103.85600000    39.33000000    14.03000000
   H    102.99600000    39.33000000    13.61000000
   H    103.68600000    39.04000000    14.92000000
   O    106.06600000    40.73000000    15.61000000
   H    105.64600000    40.28000000    16.34000000
   H    106.45600000    41.51000000    16.00000000
   O    106.91600000    38.06000000    10.71000000
   H    106.74600000    37.16000000    11.00000000
   H    107.47600000    37.95000000     9.93000000
   O    105.40600000    37.00000000    13.13000000
   H    104.53600000    36.64000000    13.28000000
   H    105.88600000    36.30000000    12.69000000
   O    104.99600000    40.36000000    11.31000000
   H    105.21600000    40.05000000    10.44000000
   H    104.46600000    41.15000000    11.16000000
   O    106.47600000    37.90000000    15.67000000
   H    106.42600000    38.18000000    16.59000000
   H    106.93600000    37.06000000    15.70000000
   O    108.59600000    37.72000000    13.04000000
   H    109.26600000    37.35000000    13.61000000
   H    108.22600000    36.96000000    12.59000000
   O    108.62600000    40.07000000    14.86000000
   H    109.21600000    39.42000000    15.24000000
   H    108.50600000    40.71000000    15.56000000

Ca 1.70



