%chk=loop3.cluster208.chk
%nprocshared=48
%mem=10GB
%nosave
#b3lyp/svp scf=(tight,noincore) Test 
#IOP(5/87=12) Density=Current Pop=(MK,readradii) iop(6/33=2) iop(6/42=6)

loop3.cluster208 

   0  1 
   C     76.43000000    51.32000000    29.57000000
   C     76.17000000    50.10000000    30.44000000
   O     75.16000000    50.18000000    31.13000000
   H     77.44500000    51.27500000    29.17500000
   H     75.72000000    51.33500000    28.74300000
   H     76.31300000    52.22400000    30.16700000
   N     77.03000000    49.08000000    30.49000000
   C     76.87000000    47.80000000    31.16000000
   C     78.04000000    47.56000000    32.09000000
   O     79.20000000    47.82000000    31.79000000
   C     76.70000000    46.72000000    30.09000000
   C     76.37000000    45.40000000    30.77000000
   O     75.22000000    45.12000000    31.16000000
   O     77.21000000    44.47000000    30.87000000
   H     77.91000000    49.23000000    30.01000000
   H     75.93000000    47.85000000    31.72000000
   H     77.58000000    46.63000000    29.46000000
   H     75.88000000    46.97000000    29.41000000
   N     77.75000000    46.90000000    33.21000000
   C     78.75000000    46.59000000    34.22000000
   C     79.81000000    45.52000000    34.01000000
   O     80.80000000    45.42000000    34.74000000
   C     78.09000000    46.46000000    35.59000000
   C     77.64000000    47.68000000    36.40000000
   C     76.79000000    47.28000000    37.60000000
   C     76.76000000    48.35000000    38.69000000
   N     75.38000000    48.71000000    39.05000000
   H     76.77000000    46.71000000    33.38000000
   H     79.38000000    47.48000000    34.26000000
   H     78.86000000    45.91000000    36.13000000
   H     77.34000000    45.69000000    35.46000000
   H     77.05000000    48.17000000    35.63000000
   H     78.48000000    48.30000000    36.71000000
   H     77.29000000    46.42000000    38.04000000
   H     75.78000000    47.01000000    37.27000000
   H     77.37000000    49.21000000    38.41000000
   H     77.37000000    48.00000000    39.52000000
   H     74.85000000    47.87000000    39.21000000
   H     75.30000000    49.31000000    39.85000000
   H     74.86000000    49.07000000    38.26000000
   N     79.54000000    44.70000000    32.99000000
   C     80.41000000    43.63000000    32.55000000
   C     80.64000000    43.70000000    31.05000000
   O     81.66000000    43.19000000    30.59000000
   C     79.79000000    42.28000000    32.92000000
   C     78.32000000    42.16000000    32.52000000
   O     78.08000000    41.68000000    31.39000000
   O     77.35000000    42.21000000    33.30000000
   H     78.62000000    44.81000000    32.60000000
   H     81.43000000    43.70000000    32.91000000
   H     79.94000000    42.22000000    34.00000000
   H     80.36000000    41.49000000    32.45000000
   N     79.78000000    44.35000000    30.26000000
   C     80.12000000    44.88000000    28.96000000
   C     79.28000000    44.44000000    27.77000000
   O     79.51000000    44.87000000    26.64000000
   H     78.94000000    44.78000000    30.61000000
   H     81.19000000    44.78000000    28.76000000
   H     80.04000000    45.96000000    29.09000000
   N     78.21000000    43.66000000    27.97000000
   C     77.24000000    43.39000000    26.93000000
   C     75.94000000    44.17000000    26.98000000
   O     75.88000000    45.12000000    27.76000000
   C     76.92000000    41.90000000    26.97000000
   C     76.24000000    41.30000000    28.19000000
   N     76.11000000    39.97000000    28.16000000
   O     75.71000000    41.90000000    29.13000000
   H     78.15000000    43.28000000    28.90000000
   H     77.63000000    43.63000000    25.94000000
   H     77.87000000    41.36000000    26.99000000
   H     76.42000000    41.56000000    26.06000000
   H     76.48000000    39.42000000    27.40000000
   H     75.77000000    39.60000000    29.04000000
   N     74.95000000    43.88000000    26.13000000
   C     73.65000000    44.51000000    26.10000000
   C     72.63000000    44.03000000    27.13000000
   O     71.80000000    44.87000000    27.48000000
   H     75.19000000    43.23000000    25.39000000
   H     73.21000000    44.37000000    25.11000000
   H     73.75000000    45.59000000    26.18000000
   N     72.74000000    42.79000000    27.62000000
   C     71.76000000    42.14000000    28.47000000
   C     72.07000000    42.44000000    29.93000000
   O     73.18000000    42.74000000    30.35000000
   C     71.90000000    40.62000000    28.34000000
   C     71.64000000    40.00000000    26.98000000
   C     72.74000000    39.44000000    26.32000000
   C     70.40000000    40.08000000    26.34000000
   C     72.54000000    38.87000000    25.05000000
   C     70.18000000    39.58000000    25.05000000
   C     71.30000000    39.01000000    24.40000000
   O     71.17000000    38.53000000    23.13000000
   H     73.62000000    42.35000000    27.40000000
   H     70.79000000    42.50000000    28.15000000
   H     71.08000000    40.18000000    28.90000000
   H     72.92000000    40.35000000    28.60000000
   H     73.71000000    39.44000000    26.77000000
   H     69.64000000    40.55000000    26.95000000
   H     73.42000000    38.44000000    24.60000000
   H     69.26000000    39.73000000    24.51000000
   H     70.26000000    38.38000000    22.89000000
   N     71.02000000    42.26000000    30.73000000
   C     70.93000000    42.42000000    32.16000000
   C     71.92000000    41.65000000    33.02000000
   O     73.13000000    41.67000000    32.81000000
   C     70.93000000    43.92000000    32.43000000
   C     70.53000000    44.27000000    33.86000000
   C     69.98000000    44.75000000    31.58000000
   C     71.23000000    45.53000000    34.38000000
   H     70.17000000    41.96000000    30.27000000
   H     69.92000000    42.05000000    32.34000000
   H     71.96000000    44.20000000    32.19000000
   H     70.94000000    43.51000000    34.53000000
   H     69.45000000    44.34000000    33.98000000
   H     69.87000000    45.73000000    32.06000000
   H     70.32000000    44.85000000    30.55000000
   H     68.98000000    44.33000000    31.64000000
   H     71.24000000    46.37000000    33.68000000
   H     70.94000000    45.86000000    35.38000000
   H     72.26000000    45.19000000    34.47000000
   N     71.39000000    41.05000000    34.09000000
   C     72.22000000    40.44000000    35.11000000
   C     71.46000000    39.53000000    36.06000000
   O     72.08000000    38.73000000    36.77000000
   C     72.99000000    41.51000000    35.89000000
   O     72.04000000    42.30000000    36.57000000
   H     70.38000000    40.99000000    34.04000000
   H     72.95000000    39.80000000    34.62000000
   H     73.56000000    42.14000000    35.22000000
   H     73.67000000    41.17000000    36.68000000
   H     72.47000000    43.10000000    36.88000000
   N     70.13000000    39.45000000    35.94000000
   C     69.29000000    38.51000000    36.65000000
   C     69.49000000    38.31000000    38.15000000
   O     69.37000000    37.20000000    38.67000000
   C     69.44000000    37.19000000    35.91000000
   H     69.75000000    40.08000000    35.25000000
   H     68.24000000    38.82000000    36.61000000
   H     70.33000000    36.65000000    36.22000000
   H     68.56000000    36.62000000    36.19000000
   H     69.62000000    37.48000000    34.88000000
   N     69.87000000    39.25000000    39.02000000
   C     70.08000000    40.68000000    38.90000000
   C     69.05000000    41.40000000    39.77000000
   O     68.59000000    40.82000000    40.75000000
   C     71.46000000    41.03000000    39.45000000
   H     69.96000000    38.88000000    39.96000000
   H     69.97000000    41.03000000    37.88000000
   H     71.75000000    42.07000000    39.50000000
   H     71.57000000    40.65000000    40.47000000
   H     72.17000000    40.43000000    38.88000000
   N     68.69000000    42.63000000    39.40000000
   C     68.93000000    43.44000000    38.23000000
   C     67.66000000    44.08000000    37.67000000
   O     67.70000000    44.75000000    36.65000000
   C     69.95000000    44.46000000    38.72000000
   C     69.48000000    45.43000000    39.80000000
   C     70.64000000    46.37000000    40.10000000
   O     70.61000000    47.59000000    39.85000000
   O     71.69000000    45.83000000    40.52000000
   H     68.14000000    43.09000000    40.11000000
   H     69.34000000    42.91000000    37.38000000
   H     70.33000000    45.09000000    37.91000000
   H     70.83000000    43.89000000    39.02000000
   H     69.16000000    44.86000000    40.68000000
   H     68.60000000    45.98000000    39.46000000
   N     66.52000000    43.97000000    38.35000000
   C     65.20000000    44.32000000    37.86000000
   H     64.52700000    44.46900000    38.70500000
   H     65.26000000    45.23900000    37.27700000
   H     64.82000000    43.51500000    37.23100000
   H     66.59000000    43.46000000    39.22000000
  Ca     75.48000000    42.53000000    31.58000000
   O     75.04000000    39.81000000    31.50000000
   H     74.12000000    39.53000000    31.56000000
   H     75.53000000    39.12000000    31.94000000
   O     74.82000000    43.81000000    33.84000000
   H     74.67000000    44.75000000    33.94000000
   H     75.18000000    43.53000000    34.68000000

Ca 1.70



