%chk=loop2.cluster71.chk
%nprocshared=48
%mem=10GB
%nosave
#b3lyp/svp scf=(tight,noincore) Test 
#IOP(5/87=12) Density=Current Pop=(MK,readradii) iop(6/33=2) iop(6/42=6)

loop2.cluster71 

   -2  1 
   C     63.80000000    57.95000000    17.10000000
   C     62.72000000    58.62000000    17.93000000
   O     63.02000000    59.60000000    18.60000000
   H     64.70900000    57.85700000    17.69400000
   H     63.46300000    56.95900000    16.79500000
   H     64.00500000    58.55300000    16.21500000
   N     61.48000000    58.11000000    17.96000000
   C     60.41000000    58.52000000    18.85000000
   C     60.68000000    58.04000000    20.26000000
   O     60.77000000    56.82000000    20.45000000
   C     59.01000000    58.11000000    18.39000000
   C     57.95000000    58.34000000    19.46000000
   O     57.00000000    57.56000000    19.69000000
   O     58.01000000    59.41000000    20.11000000
   H     61.24000000    57.35000000    17.35000000
   H     60.36000000    59.61000000    18.78000000
   H     59.15000000    57.05000000    18.18000000
   H     58.75000000    58.58000000    17.45000000
   N     60.76000000    58.94000000    21.24000000
   C     61.06000000    58.66000000    22.64000000
   C     59.84000000    58.32000000    23.48000000
   O     59.83000000    57.49000000    24.39000000
   C     61.82000000    59.85000000    23.21000000
   H     60.41000000    59.86000000    21.07000000
   H     61.77000000    57.85000000    22.52000000
   H     61.16000000    60.72000000    23.14000000
   H     62.08000000    59.60000000    24.24000000
   H     62.70000000    60.12000000    22.63000000
   N     58.68000000    58.86000000    23.11000000
   C     57.54000000    58.74000000    23.99000000
   C     56.69000000    57.49000000    23.85000000
   O     55.96000000    57.18000000    24.80000000
   C     56.55000000    59.89000000    23.81000000
   C     57.19000000    61.27000000    23.69000000
   O     57.45000000    61.72000000    22.56000000
   O     57.56000000    61.82000000    24.75000000
   H     58.61000000    59.45000000    22.29000000
   H     57.91000000    58.81000000    25.01000000
   H     55.80000000    59.91000000    24.61000000
   H     56.05000000    59.64000000    22.88000000
   N     56.74000000    56.80000000    22.71000000
   C     56.08000000    55.53000000    22.51000000
   C     54.75000000    55.77000000    21.81000000
   O     53.85000000    55.00000000    22.14000000
   H     57.17000000    57.30000000    21.94000000
   H     55.91000000    55.05000000    23.48000000
   H     56.63000000    54.97000000    21.75000000
   N     54.59000000    56.73000000    20.90000000
   C     53.40000000    56.69000000    20.07000000
   C     53.63000000    56.68000000    18.57000000
   O     52.64000000    56.66000000    17.85000000
   C     52.42000000    57.74000000    20.58000000
   C     52.65000000    59.19000000    20.17000000
   N     51.68000000    60.03000000    20.53000000
   O     53.62000000    59.64000000    19.57000000
   H     55.39000000    57.27000000    20.62000000
   H     53.00000000    55.68000000    20.20000000
   H     52.48000000    57.66000000    21.67000000
   H     51.47000000    57.38000000    20.18000000
   H     50.87000000    59.78000000    21.07000000
   H     51.75000000    60.94000000    20.10000000
   N     54.87000000    56.83000000    18.09000000
   C     55.19000000    56.80000000    16.68000000
   C     54.79000000    58.09000000    15.97000000
   O     54.05000000    58.06000000    15.00000000
   H     55.66000000    56.85000000    18.71000000
   H     54.68000000    55.99000000    16.16000000
   H     56.26000000    56.67000000    16.48000000
   N     55.27000000    59.22000000    16.51000000
   C     55.06000000    60.57000000    16.04000000
   C     56.23000000    61.42000000    16.50000000
   O     56.81000000    61.21000000    17.57000000
   C     53.83000000    61.27000000    16.62000000
   C     53.10000000    62.27000000    15.73000000
   O     52.85000000    60.29000000    16.91000000
   H     55.90000000    59.10000000    17.29000000
   H     55.06000000    60.56000000    14.95000000
   H     54.21000000    61.79000000    17.50000000
   H     53.23000000    59.87000000    17.69000000
   H     53.79000000    63.10000000    15.59000000
   H     52.88000000    61.88000000    14.73000000
   H     52.19000000    62.63000000    16.19000000
   N     56.69000000    62.29000000    15.60000000
   C     57.96000000    62.99000000    15.66000000
   C     57.74000000    64.41000000    16.15000000
   O     56.94000000    65.20000000    15.64000000
   C     58.66000000    62.91000000    14.30000000
   C     59.06000000    61.50000000    13.88000000
   C     59.87000000    63.84000000    14.18000000
   C     59.81000000    60.59000000    14.86000000
   H     56.06000000    62.57000000    14.86000000
   H     58.60000000    62.42000000    16.33000000
   H     58.00000000    63.20000000    13.48000000
   H     59.64000000    61.53000000    12.96000000
   H     58.14000000    61.01000000    13.57000000
   H     59.49000000    64.84000000    14.00000000
   H     60.43000000    63.74000000    15.11000000
   H     60.63000000    63.50000000    13.49000000
   H     59.15000000    60.33000000    15.69000000
   H     60.17000000    59.75000000    14.26000000
   H     60.64000000    61.21000000    15.19000000
   N     58.58000000    64.73000000    17.14000000
   C     58.88000000    66.04000000    17.67000000
   C     60.12000000    66.63000000    17.00000000
   O     60.87000000    65.97000000    16.30000000
   C     58.96000000    66.04000000    19.19000000
   C     57.71000000    65.45000000    19.83000000
   O     57.77000000    64.43000000    20.54000000
   O     56.58000000    65.93000000    19.59000000
   H     59.06000000    63.92000000    17.51000000
   H     58.07000000    66.74000000    17.45000000
   H     59.09000000    67.05000000    19.59000000
   H     59.83000000    65.42000000    19.42000000
   N     60.50000000    67.89000000    17.27000000
   C     61.65000000    68.56000000    16.71000000
   C     63.02000000    68.02000000    17.10000000
   O     63.88000000    68.02000000    16.23000000
   C     61.55000000    70.07000000    16.89000000
   C     62.68000000    70.74000000    16.14000000
   C     62.92000000    70.44000000    14.80000000
   C     63.41000000    71.78000000    16.75000000
   C     63.86000000    71.18000000    14.07000000
   C     64.38000000    72.48000000    16.03000000
   C     64.65000000    72.15000000    14.69000000
   H     59.98000000    68.37000000    17.99000000
   H     61.66000000    68.30000000    15.65000000
   H     61.58000000    70.30000000    17.96000000
   H     60.63000000    70.39000000    16.41000000
   H     62.45000000    69.64000000    14.24000000
   H     63.27000000    72.01000000    17.79000000
   H     64.02000000    70.87000000    13.05000000
   H     64.88000000    73.30000000    16.52000000
   H     65.45000000    72.61000000    14.13000000
   N     63.31000000    67.64000000    18.35000000
   C     64.56000000    67.01000000    18.72000000
   C     64.70000000    65.62000000    18.11000000
   O     65.76000000    65.04000000    17.89000000
   C     64.63000000    66.91000000    20.24000000
   C     63.42000000    67.66000000    20.78000000
   C     62.68000000    68.15000000    19.55000000
   H     65.39000000    67.63000000    18.38000000
   H     64.57000000    65.87000000    20.57000000
   H     65.46000000    67.44000000    20.72000000
   H     62.80000000    66.94000000    21.31000000
   H     63.54000000    68.45000000    21.53000000
   H     61.61000000    67.94000000    19.56000000
   H     62.78000000    69.24000000    19.53000000
   N     63.59000000    64.91000000    17.89000000
   C     63.45000000    63.61000000    17.25000000
   C     63.61000000    63.76000000    15.75000000
   O     64.25000000    62.96000000    15.07000000
   C     62.10000000    62.99000000    17.59000000
   C     61.80000000    62.69000000    19.06000000
   C     60.42000000    62.10000000    19.33000000
   O     59.49000000    62.35000000    18.54000000
   O     60.12000000    61.56000000    20.41000000
   H     62.69000000    65.34000000    18.03000000
   H     64.17000000    62.87000000    17.60000000
   H     61.99000000    62.08000000    17.00000000
   H     61.37000000    63.73000000    17.28000000
   H     61.95000000    63.63000000    19.59000000
   H     62.54000000    62.00000000    19.47000000
   N     63.16000000    64.88000000    15.18000000
   C     63.51000000    65.18000000    13.81000000
   H     64.54600000    64.89300000    13.62900000
   H     62.85700000    64.62400000    13.13700000
   H     63.39300000    66.24900000    13.63000000
   H     62.64000000    65.60000000    15.67000000
  Ca     57.52000000    61.95000000    20.07000000
   O     55.41000000    63.71000000    18.53000000
   H     55.65000000    64.64000000    18.54000000
   H     54.47000000    63.70000000    18.72000000
   O     55.03000000    61.37000000    20.78000000
   H     54.63000000    61.52000000    21.64000000
   H     54.50000000    60.68000000    20.38000000

Ca 1.70



