%chk=loop3.cluster37.chk
%nprocshared=48
%mem=10GB
%nosave
#b3lyp/svp scf=(tight,noincore) Test 
#IOP(5/87=12) Density=Current Pop=(MK,readradii) iop(6/33=2) iop(6/42=6)

loop3.cluster37 

   0  1 
   C     48.37000000    44.85000000    43.51000000
   C     47.68000000    44.74000000    44.87000000
   O     48.31000000    44.56000000    45.91000000
   H     49.37900000    44.44300000    43.58100000
   H     47.80400000    44.28700000    42.76800000
   H     48.42100000    45.89700000    43.21100000
   N     46.35000000    44.84000000    44.91000000
   C     45.49000000    44.92000000    46.07000000
   C     44.87000000    43.54000000    46.21000000
   O     43.99000000    43.18000000    45.43000000
   C     44.41000000    45.99000000    45.95000000
   C     43.61000000    46.18000000    47.23000000
   O     42.52000000    46.79000000    47.10000000
   O     44.03000000    45.63000000    48.26000000
   H     45.83000000    44.70000000    44.06000000
   H     46.10000000    45.13000000    46.95000000
   H     43.73000000    45.76000000    45.13000000
   H     44.88000000    46.94000000    45.69000000
   N     45.37000000    42.79000000    47.20000000
   C     45.27000000    41.35000000    47.30000000
   C     44.08000000    40.87000000    48.11000000
   O     43.63000000    39.74000000    47.92000000
   C     46.54000000    40.70000000    47.84000000
   C     47.70000000    40.60000000    46.85000000
   C     47.79000000    39.33000000    46.01000000
   C     46.48000000    39.18000000    45.25000000
   N     46.60000000    38.10000000    44.25000000
   H     46.04000000    43.19000000    47.85000000
   H     44.99000000    41.02000000    46.30000000
   H     46.29000000    39.69000000    48.16000000
   H     46.78000000    41.20000000    48.78000000
   H     48.61000000    40.74000000    47.42000000
   H     47.69000000    41.46000000    46.18000000
   H     47.94000000    38.52000000    46.72000000
   H     48.69000000    39.40000000    45.39000000
   H     46.33000000    40.07000000    44.64000000
   H     45.65000000    39.00000000    45.93000000
   H     47.21000000    38.47000000    43.53000000
   H     47.08000000    37.33000000    44.68000000
   H     45.71000000    37.80000000    43.87000000
   N     43.42000000    41.80000000    48.82000000
   C     42.17000000    41.63000000    49.53000000
   C     41.09000000    42.60000000    49.09000000
   O     39.95000000    42.37000000    49.50000000
   C     42.38000000    41.75000000    51.04000000
   C     42.86000000    43.10000000    51.56000000
   O     43.35000000    43.98000000    50.82000000
   O     42.85000000    43.23000000    52.80000000
   H     43.97000000    42.62000000    49.02000000
   H     41.72000000    40.67000000    49.28000000
   H     43.06000000    41.00000000    51.44000000
   H     41.41000000    41.59000000    51.52000000
   N     41.47000000    43.53000000    48.21000000
   C     40.47000000    44.44000000    47.69000000
   C     40.03000000    45.55000000    48.64000000
   O     38.94000000    46.09000000    48.49000000
   H     42.45000000    43.66000000    48.01000000
   H     39.63000000    43.81000000    47.42000000
   H     40.91000000    44.92000000    46.82000000
   N     40.81000000    45.92000000    49.67000000
   C     40.40000000    47.00000000    50.54000000
   C     40.51000000    48.42000000    50.01000000
   O     40.23000000    49.35000000    50.77000000
   C     40.96000000    46.82000000    51.95000000
   C     42.41000000    47.28000000    52.03000000
   N     42.78000000    48.02000000    53.08000000
   O     43.20000000    46.94000000    51.15000000
   H     41.74000000    45.57000000    49.82000000
   H     39.33000000    46.84000000    50.67000000
   H     40.88000000    45.81000000    52.33000000
   H     40.36000000    47.50000000    52.55000000
   H     42.11000000    48.29000000    53.78000000
   H     43.75000000    48.29000000    53.21000000
   N     41.07000000    48.54000000    48.81000000
   C     41.24000000    49.85000000    48.19000000
   C     42.59000000    50.50000000    48.42000000
   O     42.67000000    51.71000000    48.20000000
   H     41.44000000    47.78000000    48.26000000
   H     40.35000000    50.47000000    48.33000000
   H     41.18000000    49.68000000    47.12000000
   N     43.62000000    49.78000000    48.87000000
   C     44.97000000    50.21000000    49.19000000
   C     46.05000000    49.16000000    48.95000000
   O     45.78000000    47.99000000    49.22000000
   C     45.00000000    50.48000000    50.69000000
   C     44.16000000    51.63000000    51.17000000
   C     44.56000000    52.96000000    50.98000000
   C     42.94000000    51.41000000    51.84000000
   C     43.81000000    54.07000000    51.39000000
   C     42.13000000    52.51000000    52.15000000
   C     42.53000000    53.84000000    51.93000000
   O     41.72000000    54.86000000    52.33000000
   H     43.49000000    48.79000000    48.75000000
   H     45.15000000    51.15000000    48.67000000
   H     46.00000000    50.82000000    50.98000000
   H     44.57000000    49.66000000    51.26000000
   H     45.56000000    53.09000000    50.59000000
   H     42.56000000    50.41000000    51.99000000
   H     44.09000000    55.09000000    51.16000000
   H     41.20000000    52.30000000    52.66000000
   H     40.84000000    54.59000000    52.62000000
   N     47.24000000    49.42000000    48.40000000
   C     48.41000000    48.57000000    48.31000000
   C     49.46000000    48.81000000    49.40000000
   O     49.65000000    49.96000000    49.79000000
   C     49.07000000    48.85000000    46.97000000
   C     48.16000000    48.73000000    45.75000000
   C     50.22000000    47.87000000    46.74000000
   C     48.63000000    49.40000000    44.46000000
   H     47.34000000    50.39000000    48.12000000
   H     48.19000000    47.51000000    48.33000000
   H     49.49000000    49.86000000    46.92000000
   H     47.20000000    49.22000000    45.89000000
   H     47.95000000    47.67000000    45.59000000
   H     51.09000000    48.11000000    47.36000000
   H     49.85000000    46.87000000    46.94000000
   H     50.65000000    47.97000000    45.75000000
   H     49.62000000    49.04000000    44.18000000
   H     47.99000000    49.16000000    43.62000000
   H     48.69000000    50.45000000    44.75000000
   N     50.05000000    47.72000000    49.89000000
   C     51.11000000    47.70000000    50.88000000
   C     52.42000000    47.32000000    50.20000000
   O     52.44000000    46.64000000    49.18000000
   C     50.74000000    46.72000000    51.98000000
   O     51.64000000    46.57000000    53.05000000
   H     49.79000000    46.86000000    49.43000000
   H     51.32000000    48.62000000    51.43000000
   H     50.57000000    45.75000000    51.52000000
   H     49.79000000    47.05000000    52.42000000
   H     51.18000000    46.45000000    53.89000000
   N     53.56000000    47.53000000    50.87000000
   C     54.80000000    46.79000000    50.77000000
   C     54.66000000    45.28000000    50.94000000
   O     55.32000000    44.53000000    50.23000000
   C     55.64000000    47.29000000    51.94000000
   H     53.48000000    47.93000000    51.80000000
   H     55.26000000    46.96000000    49.80000000
   H     55.12000000    47.14000000    52.88000000
   H     56.58000000    46.74000000    51.94000000
   H     55.80000000    48.35000000    51.74000000
   N     53.77000000    44.82000000    51.82000000
   C     53.43000000    43.42000000    51.94000000
   C     52.82000000    42.84000000    50.67000000
   O     53.11000000    41.69000000    50.34000000
   C     52.45000000    43.32000000    53.10000000
   H     53.25000000    45.46000000    52.41000000
   H     54.37000000    42.92000000    52.20000000
   H     51.43000000    43.64000000    52.89000000
   H     52.30000000    42.31000000    53.49000000
   H     52.74000000    43.88000000    53.99000000
   N     52.07000000    43.66000000    49.92000000
   C     51.33000000    43.10000000    48.81000000
   C     52.00000000    43.30000000    47.46000000
   O     52.19000000    42.30000000    46.76000000
   C     49.95000000    43.74000000    48.73000000
   C     49.09000000    43.59000000    49.99000000
   C     47.80000000    44.35000000    49.72000000
   O     46.72000000    43.74000000    49.61000000
   O     47.81000000    45.59000000    49.88000000
   H     51.89000000    44.58000000    50.27000000
   H     51.15000000    42.04000000    49.02000000
   H     49.36000000    43.35000000    47.90000000
   H     50.12000000    44.82000000    48.69000000
   H     49.55000000    43.90000000    50.93000000
   H     48.81000000    42.54000000    50.10000000
   N     52.66000000    44.44000000    47.26000000
   C     53.55000000    44.75000000    46.15000000
   H     54.51400000    44.26800000    46.31200000
   H     53.11300000    44.38500000    45.22000000
   H     53.69000000    45.82900000    46.08700000
   H     52.42000000    45.20000000    47.87000000
  Ca     45.30000000    45.64000000    50.42000000
   O     46.25000000    47.23000000    52.33000000
   H     46.75000000    48.03000000    52.18000000
   H     46.47000000    46.98000000    53.23000000
   O     46.74000000    44.35000000    52.59000000
   H     45.90000000    44.36000000    53.06000000
   H     47.38000000    44.60000000    53.26000000

Ca 1.70



