%chk=loop2.cluster227.chk
%nprocshared=48
%mem=10GB
%nosave
#b3lyp/svp scf=(tight,noincore) Test 
#IOP(5/87=12) Density=Current Pop=(MK,readradii) iop(6/33=2) iop(6/42=6)

loop2.cluster227 

   -2  1 
   C     92.82000000    77.28000000    43.83000000
   C     94.04000000    78.02000000    43.28000000
   O     93.95000000    79.22000000    43.01000000
   H     91.97700000    77.41800000    43.15300000
   H     93.04700000    76.21700000    43.91500000
   H     92.56600000    77.67800000    44.81300000
   N     95.21000000    77.40000000    43.20000000
   C     96.43000000    77.83000000    42.55000000
   C     97.32000000    78.56000000    43.55000000
   O     98.23000000    78.03000000    44.18000000
   C     97.22000000    76.63000000    42.04000000
   C     98.48000000    77.05000000    41.29000000
   O     99.21000000    76.08000000    41.01000000
   O     98.84000000    78.23000000    41.10000000
   H     95.24000000    76.48000000    43.62000000
   H     96.19000000    78.44000000    41.68000000
   H     96.59000000    76.03000000    41.38000000
   H     97.44000000    75.89000000    42.81000000
   N     96.90000000    79.81000000    43.75000000
   C     97.65000000    80.98000000    44.17000000
   C     96.91000000    81.82000000    45.20000000
   O     95.71000000    82.00000000    45.08000000
   C     98.21000000    81.79000000    43.00000000
   H     95.97000000    80.04000000    43.45000000
   H     98.46000000    80.56000000    44.77000000
   H     98.97000000    81.25000000    42.44000000
   H     97.38000000    81.78000000    42.29000000
   H     98.58000000    82.78000000    43.27000000
   N     97.53000000    82.36000000    46.25000000
   C     98.95000000    82.39000000    46.52000000
   C     99.34000000    81.37000000    47.58000000
   O     98.52000000    80.56000000    48.02000000
   C     99.38000000    83.81000000    46.90000000
   C     98.91000000    84.92000000    45.97000000
   O     99.50000000    85.01000000    44.87000000
   O     98.04000000    85.75000000    46.30000000
   H     97.08000000    83.00000000    46.90000000
   H     99.46000000    82.11000000    45.60000000
   H    100.47000000    83.81000000    46.89000000
   H     98.91000000    84.15000000    47.83000000
   N    100.65000000    81.30000000    47.83000000
   C    101.34000000    80.28000000    48.59000000
   C    101.20000000    78.92000000    47.91000000
   O    101.22000000    78.70000000    46.70000000
   H    101.19000000    82.01000000    47.36000000
   H    101.01000000    80.23000000    49.62000000
   H    102.42000000    80.39000000    48.59000000
   N    100.91000000    77.82000000    48.60000000
   C    101.09000000    77.63000000    50.02000000
   C     99.84000000    77.80000000    50.87000000
   O     99.96000000    78.09000000    52.06000000
   C    101.74000000    76.27000000    50.29000000
   C    103.15000000    76.30000000    49.73000000
   N    104.19000000    76.33000000    50.57000000
   O    103.36000000    76.13000000    48.53000000
   H    100.58000000    77.04000000    48.03000000
   H    101.81000000    78.39000000    50.34000000
   H    101.21000000    75.44000000    49.82000000
   H    101.77000000    75.92000000    51.32000000
   H    104.05000000    76.60000000    51.54000000
   H    105.15000000    76.26000000    50.27000000
   N     98.65000000    77.54000000    50.33000000
   C     97.47000000    77.72000000    51.15000000
   C     97.18000000    79.16000000    51.52000000
   O     96.63000000    79.31000000    52.61000000
   H     98.58000000    77.32000000    49.34000000
   H     97.46000000    77.02000000    51.99000000
   H     96.59000000    77.43000000    50.58000000
   N     97.60000000    80.21000000    50.81000000
   C     97.39000000    81.61000000    51.14000000
   C     96.23000000    82.12000000    50.30000000
   O     96.53000000    82.79000000    49.31000000
   C     98.71000000    82.34000000    50.92000000
   C     98.72000000    83.79000000    51.40000000
   O     99.70000000    81.66000000    51.66000000
   H     98.03000000    79.96000000    49.93000000
   H     97.14000000    81.61000000    52.20000000
   H     99.11000000    82.24000000    49.91000000
   H    100.53000000    82.12000000    51.51000000
   H     97.94000000    83.89000000    52.15000000
   H     99.67000000    84.12000000    51.82000000
   H     98.32000000    84.49000000    50.66000000
   N     95.00000000    81.83000000    50.72000000
   C     93.79000000    82.33000000    50.10000000
   C     92.97000000    83.20000000    51.04000000
   O     93.38000000    83.27000000    52.20000000
   C     92.96000000    81.17000000    49.57000000
   C     93.67000000    80.28000000    48.56000000
   C     92.20000000    80.35000000    50.61000000
   C     94.35000000    80.90000000    47.34000000
   H     95.06000000    81.50000000    51.68000000
   H     94.11000000    82.97000000    49.27000000
   H     92.17000000    81.69000000    49.02000000
   H     92.93000000    79.59000000    48.16000000
   H     94.43000000    79.81000000    49.19000000
   H     91.41000000    79.77000000    50.15000000
   H     92.82000000    79.76000000    51.29000000
   H     91.66000000    81.04000000    51.26000000
   H     95.08000000    81.63000000    47.69000000
   H     94.96000000    80.21000000    46.75000000
   H     93.67000000    81.46000000    46.70000000
   N     91.90000000    83.87000000    50.60000000
   C     91.07000000    84.85000000    51.27000000
   C     89.65000000    84.90000000    50.71000000
   O     89.40000000    84.62000000    49.54000000
   C     91.76000000    86.20000000    51.30000000
   C     92.55000000    86.53000000    50.04000000
   O     93.71000000    86.11000000    49.86000000
   O     91.98000000    87.17000000    49.13000000
   H     91.74000000    83.74000000    49.61000000
   H     90.95000000    84.55000000    52.31000000
   H     92.42000000    86.24000000    52.16000000
   H     91.04000000    87.01000000    51.43000000
   N     88.73000000    85.23000000    51.62000000
   C     87.33000000    85.39000000    51.27000000
   C     86.75000000    84.25000000    50.46000000
   O     86.86000000    83.08000000    50.83000000
   C     86.40000000    85.54000000    52.47000000
   C     84.96000000    85.73000000    52.06000000
   C     84.04000000    84.68000000    52.15000000
   C     84.61000000    86.86000000    51.32000000
   C     82.81000000    84.75000000    51.48000000
   C     83.34000000    86.96000000    50.74000000
   C     82.45000000    85.87000000    50.72000000
   H     89.10000000    85.40000000    52.54000000
   H     87.24000000    86.33000000    50.73000000
   H     86.60000000    86.36000000    53.16000000
   H     86.51000000    84.66000000    53.10000000
   H     84.33000000    83.79000000    52.70000000
   H     85.25000000    87.72000000    51.17000000
   H     82.17000000    83.89000000    51.40000000
   H     83.22000000    87.89000000    50.20000000
   H     81.50000000    86.01000000    50.23000000
   N     86.16000000    84.55000000    49.30000000
   C     85.64000000    83.53000000    48.41000000
   C     86.63000000    82.53000000    47.84000000
   O     86.23000000    81.44000000    47.44000000
   C     84.91000000    84.19000000    47.25000000
   C     85.00000000    85.70000000    47.45000000
   C     86.06000000    85.78000000    48.55000000
   H     84.86000000    82.98000000    48.94000000
   H     85.37000000    83.90000000    46.30000000
   H     83.88000000    83.84000000    47.20000000
   H     85.37000000    86.13000000    46.51000000
   H     84.04000000    86.06000000    47.82000000
   H     87.02000000    85.87000000    48.04000000
   H     85.95000000    86.63000000    49.22000000
   N     87.95000000    82.73000000    47.76000000
   C     88.90000000    81.74000000    47.30000000
   C     88.78000000    80.48000000    48.15000000
   O     88.72000000    79.38000000    47.61000000
   C     90.31000000    82.32000000    47.32000000
   C     90.52000000    83.49000000    46.37000000
   C     91.81000000    84.29000000    46.52000000
   O     92.24000000    85.08000000    45.65000000
   O     92.43000000    84.20000000    47.61000000
   H     88.39000000    83.52000000    48.20000000
   H     88.56000000    81.54000000    46.29000000
   H     90.94000000    81.54000000    46.89000000
   H     90.58000000    82.70000000    48.31000000
   H     89.76000000    84.24000000    46.59000000
   H     90.48000000    83.16000000    45.33000000
   N     88.67000000    80.55000000    49.48000000
   C     88.44000000    79.38000000    50.30000000
   H     87.42900000    79.01100000    50.13000000
   H     89.15900000    78.60400000    50.03700000
   H     88.55800000    79.64300000    51.35100000
   H     88.66000000    81.46000000    49.92000000
  Ca     93.82000000    86.32000000    47.27000000
   O     92.59000000    88.42000000    46.10000000
   H     91.66000000    88.35000000    45.88000000
   H     92.79000000    89.35000000    45.99000000
   O     95.97000000    84.72000000    47.69000000
   H     96.34000000    84.06000000    48.28000000
   H     96.74000000    85.15000000    47.31000000
   O     95.56000000    86.05000000    45.10000000
   H     95.68000000    85.67000000    44.23000000
   H     96.44000000    86.09000000    45.47000000

Ca 1.70



