%chk=loop4.cluster12.chk
%nprocshared=48
%mem=10GB
%nosave
#b3lyp/svp scf=(tight,noincore) Test 
#IOP(5/87=12) Density=Current Pop=(MK,readradii) iop(6/33=2) iop(6/42=6)

loop4.cluster12 

   -3  1 
   C     81.41000000    45.46000000    83.70000000
   C     82.49000000    44.38000000    83.72000000
   O     83.09000000    44.06000000    82.70000000
   H     80.52500000    45.09700000    84.22200000
   H     81.78200000    46.35600000    84.19700000
   H     81.15100000    45.69700000    82.66800000
   N     82.61000000    43.63000000    84.82000000
   C     83.42000000    42.43000000    84.81000000
   C     84.92000000    42.68000000    84.71000000
   O     85.68000000    41.90000000    84.13000000
   C     82.80000000    41.31000000    83.99000000
   C     81.29000000    41.10000000    84.07000000
   O     80.75000000    41.35000000    85.16000000
   O     80.69000000    40.76000000    83.02000000
   H     82.17000000    43.95000000    85.67000000
   H     83.30000000    42.15000000    85.86000000
   H     83.14000000    40.37000000    84.43000000
   H     83.14000000    41.27000000    82.96000000
   N     85.33000000    43.75000000    85.39000000
   C     86.71000000    44.04000000    85.71000000
   C     86.92000000    43.66000000    87.17000000
   O     86.27000000    44.20000000    88.06000000
   C     87.08000000    45.47000000    85.35000000
   C     86.88000000    45.87000000    83.89000000
   C     88.50000000    45.80000000    85.79000000
   C     87.65000000    45.02000000    82.88000000
   H     84.65000000    44.20000000    85.99000000
   H     87.37000000    43.43000000    85.09000000
   H     86.47000000    46.12000000    85.98000000
   H     87.17000000    46.90000000    83.68000000
   H     85.85000000    45.82000000    83.55000000
   H     88.84000000    46.71000000    85.29000000
   H     88.56000000    45.94000000    86.87000000
   H     89.09000000    44.95000000    85.43000000
   H     88.63000000    44.67000000    83.20000000
   H     87.02000000    44.19000000    82.55000000
   H     87.81000000    45.69000000    82.04000000
   N     87.63000000    42.59000000    87.53000000
   C     88.29000000    41.60000000    86.70000000
   C     87.41000000    40.49000000    86.13000000
   O     87.68000000    39.87000000    85.10000000
   C     89.40000000    40.89000000    87.46000000
   C     90.48000000    41.82000000    88.01000000
   O     91.27000000    42.37000000    87.22000000
   O     90.45000000    42.00000000    89.25000000
   H     87.87000000    42.69000000    88.51000000
   H     88.74000000    42.18000000    85.89000000
   H     89.89000000    40.15000000    86.83000000
   H     88.89000000    40.34000000    88.24000000
   N     86.39000000    40.10000000    86.90000000
   C     85.50000000    39.01000000    86.56000000
   C     86.09000000    37.60000000    86.56000000
   O     87.05000000    37.30000000    87.26000000
   H     86.10000000    40.61000000    87.72000000
   H     85.26000000    39.16000000    85.51000000
   H     84.64000000    38.97000000    87.23000000
   N     85.64000000    36.77000000    85.61000000
   C     86.26000000    35.57000000    85.09000000
   C     87.30000000    35.83000000    84.01000000
   O     88.11000000    34.96000000    83.72000000
   C     85.19000000    34.54000000    84.75000000
   C     84.23000000    35.09000000    83.70000000
   O     83.36000000    34.36000000    83.18000000
   O     84.39000000    36.26000000    83.28000000
   H     84.76000000    36.98000000    85.16000000
   H     86.81000000    35.19000000    85.95000000
   H     84.55000000    34.21000000    85.58000000
   H     85.73000000    33.68000000    84.34000000
   N     87.34000000    37.06000000    83.49000000
   C     88.11000000    37.44000000    82.32000000
   C     87.36000000    37.21000000    81.02000000
   O     87.95000000    37.46000000    79.97000000
   H     86.64000000    37.67000000    83.88000000
   H     88.96000000    36.75000000    82.30000000
   H     88.40000000    38.49000000    82.40000000
   N     86.11000000    36.72000000    81.03000000
   C     85.25000000    36.55000000    79.88000000
   C     85.07000000    37.75000000    78.95000000
   O     85.22000000    37.70000000    77.73000000
   C     85.58000000    35.20000000    79.24000000
   C     85.31000000    33.95000000    80.06000000
   C     85.58000000    32.69000000    79.24000000
   N     85.26000000    31.58000000    79.91000000
   O     86.01000000    32.73000000    78.09000000
   H     85.73000000    36.49000000    81.94000000
   H     84.34000000    36.39000000    80.45000000
   H     86.63000000    35.31000000    78.95000000
   H     85.03000000    35.18000000    78.30000000
   H     84.34000000    33.85000000    80.54000000
   H     86.16000000    33.77000000    80.72000000
   H     84.76000000    31.69000000    80.78000000
   H     85.26000000    30.72000000    79.37000000
   N     84.48000000    38.81000000    79.50000000
   C     84.24000000    40.07000000    78.83000000
   C     82.91000000    39.89000000    78.10000000
   O     81.82000000    39.83000000    78.66000000
   C     84.17000000    41.18000000    79.87000000
   C     85.38000000    41.36000000    80.78000000
   C     83.95000000    42.53000000    79.20000000
   H     84.20000000    38.74000000    80.47000000
   H     85.08000000    40.27000000    78.16000000
   H     83.31000000    41.00000000    80.51000000
   H     85.36000000    40.52000000    81.47000000
   H     86.33000000    41.46000000    80.25000000
   H     85.31000000    42.28000000    81.38000000
   H     83.86000000    43.33000000    79.94000000
   H     84.76000000    42.72000000    78.50000000
   H     82.99000000    42.54000000    78.68000000
   N     82.98000000    39.80000000    76.77000000
   C     81.83000000    39.79000000    75.89000000
   C     81.32000000    41.19000000    75.57000000
   O     82.04000000    42.14000000    75.26000000
   C     82.17000000    39.05000000    74.61000000
   C     81.07000000    38.99000000    73.56000000
   N     79.81000000    38.76000000    73.97000000
   O     81.21000000    39.37000000    72.41000000
   H     83.88000000    39.99000000    76.34000000
   H     80.99000000    39.24000000    76.32000000
   H     82.51000000    38.04000000    74.83000000
   H     83.01000000    39.61000000    74.18000000
   H     79.61000000    38.64000000    74.95000000
   H     79.13000000    38.78000000    73.23000000
   N     79.99000000    41.35000000    75.53000000
   C     79.30000000    42.57000000    75.16000000
   C     77.97000000    42.76000000    75.87000000
   O     76.92000000    42.84000000    75.24000000
   C     79.08000000    42.63000000    73.65000000
   C     78.95000000    44.02000000    73.07000000
   C     80.07000000    44.87000000    73.12000000
   C     77.90000000    44.49000000    72.27000000
   C     80.16000000    46.13000000    72.53000000
   C     77.91000000    45.75000000    71.66000000
   C     79.05000000    46.57000000    71.77000000
   O     78.98000000    47.77000000    71.12000000
   H     79.43000000    40.53000000    75.69000000
   H     79.95000000    43.40000000    75.42000000
   H     78.19000000    42.02000000    73.44000000
   H     79.92000000    42.16000000    73.13000000
   H     80.91000000    44.44000000    73.65000000
   H     77.11000000    43.79000000    72.03000000
   H     81.02000000    46.78000000    72.56000000
   H     77.10000000    46.09000000    71.04000000
   H     78.10000000    48.10000000    70.96000000
   N     77.96000000    42.68000000    77.21000000
   C     76.76000000    42.46000000    77.99000000
   C     76.16000000    43.81000000    78.35000000
   O     74.96000000    43.98000000    78.11000000
   C     76.89000000    41.49000000    79.16000000
   C     75.55000000    41.48000000    79.89000000
   C     75.33000000    40.28000000    80.81000000
   O     75.88000000    39.22000000    80.45000000
   O     74.41000000    40.28000000    81.65000000
   H     78.86000000    42.64000000    77.66000000
   H     76.08000000    41.94000000    77.32000000
   H     77.61000000    41.84000000    79.91000000
   H     77.20000000    40.51000000    78.80000000
   H     74.76000000    41.48000000    79.14000000
   H     75.55000000    42.41000000    80.47000000
   N     76.86000000    44.87000000    78.76000000
   C     78.16000000    44.89000000    79.39000000
   C     79.17000000    45.57000000    78.47000000
   O     78.78000000    45.91000000    77.36000000
   C     78.14000000    45.62000000    80.73000000
   C     77.20000000    45.25000000    81.87000000
   C     77.45000000    43.82000000    82.32000000
   O     76.53000000    43.25000000    82.95000000
   O     78.50000000    43.19000000    82.09000000
   H     76.45000000    45.78000000    78.58000000
   H     78.52000000    43.88000000    79.61000000
   H     78.12000000    46.70000000    80.54000000
   H     79.13000000    45.53000000    81.19000000
   H     76.20000000    45.36000000    81.44000000
   H     77.50000000    45.85000000    82.73000000
   N     80.40000000    45.62000000    78.99000000
   C     81.55000000    46.35000000    78.49000000
   H     82.39900000    45.67200000    78.40100000
   H     81.31700000    46.77000000    77.51200000
   H     81.79900000    47.15500000    79.18200000
   H     80.55000000    45.12000000    79.85000000
  Ca     78.36000000    41.51000000    83.87000000
   O     78.31000000    39.20000000    85.08000000
   H     77.78000000    38.73000000    85.72000000
   H     79.15000000    38.74000000    85.08000000
   O     78.23000000    39.48000000    81.95000000
   H     79.02000000    39.15000000    81.53000000
   H     77.51000000    39.12000000    81.44000000
   O     76.03000000    40.32000000    83.88000000
   H     75.78000000    39.55000000    84.39000000
   H     75.50000000    40.27000000    83.08000000

Ca 1.70



