%chk=loop3.cluster156.chk
%nprocshared=48
%mem=10GB
%nosave
#b3lyp/svp scf=(tight,noincore) Test 
#IOP(5/87=12) Density=Current Pop=(MK,readradii) iop(6/33=2) iop(6/42=6)

loop3.cluster156 

   0  1 
   C    105.89000000    61.46000000    18.70000000
   C    106.96000000    60.41000000    18.44000000
   O    106.58000000    59.25000000    18.35000000
   H    104.99300000    60.97600000    19.08500000
   H    106.25700000    62.18000000    19.43200000
   H    105.65300000    61.97600000    17.77000000
   N    108.26000000    60.74000000    18.36000000
   C    109.18000000    59.75000000    17.85000000
   C    109.58000000    58.76000000    18.93000000
   O    109.09000000    57.63000000    18.87000000
   C    110.42000000    60.32000000    17.16000000
   C    111.13000000    61.54000000    17.73000000
   O    112.08000000    62.11000000    17.14000000
   O    110.71000000    61.96000000    18.83000000
   H    108.65000000    61.66000000    18.52000000
   H    108.70000000    59.08000000    17.14000000
   H    110.05000000    60.61000000    16.18000000
   H    111.17000000    59.55000000    16.98000000
   N    110.42000000    59.20000000    19.87000000
   C    111.20000000    58.42000000    20.82000000
   C    112.24000000    57.49000000    20.21000000
   O    113.46000000    57.58000000    20.29000000
   C    111.71000000    59.44000000    21.83000000
   C    112.43000000    58.73000000    22.98000000
   C    113.53000000    59.59000000    23.59000000
   C    114.05000000    59.05000000    24.92000000
   N    114.79000000    57.80000000    24.70000000
   H    110.75000000    60.13000000    19.67000000
   H    110.48000000    57.77000000    21.32000000
   H    110.92000000    60.09000000    22.18000000
   H    112.43000000    60.14000000    21.40000000
   H    112.92000000    57.79000000    22.72000000
   H    111.62000000    58.48000000    23.66000000
   H    113.21000000    60.63000000    23.63000000
   H    114.32000000    59.61000000    22.84000000
   H    113.25000000    58.91000000    25.65000000
   H    114.86000000    59.68000000    25.27000000
   H    114.25000000    57.17000000    24.13000000
   H    115.73000000    57.94000000    24.36000000
   H    114.93000000    57.35000000    25.59000000
   N    111.69000000    56.53000000    19.46000000
   C    112.41000000    55.66000000    18.55000000
   C    111.71000000    55.27000000    17.25000000
   O    112.37000000    54.70000000    16.39000000
   C    112.84000000    54.44000000    19.34000000
   C    111.76000000    53.79000000    20.20000000
   O    112.13000000    53.01000000    21.11000000
   O    110.55000000    53.90000000    19.94000000
   H    110.69000000    56.41000000    19.51000000
   H    113.27000000    56.28000000    18.29000000
   H    113.67000000    54.68000000    20.01000000
   H    113.19000000    53.58000000    18.76000000
   N    110.41000000    55.57000000    17.10000000
   C    109.70000000    55.36000000    15.85000000
   C    108.28000000    55.91000000    15.77000000
   O    107.70000000    56.41000000    16.73000000
   H    109.96000000    56.00000000    17.89000000
   H    109.58000000    54.31000000    15.58000000
   H    110.25000000    55.95000000    15.12000000
   N    107.66000000    55.92000000    14.59000000
   C    108.06000000    55.36000000    13.32000000
   C    106.91000000    54.70000000    12.58000000
   O    105.87000000    55.31000000    12.33000000
   C    108.79000000    56.41000000    12.49000000
   C    109.18000000    55.95000000    11.09000000
   N    110.32000000    55.27000000    10.99000000
   O    108.46000000    56.15000000    10.12000000
   H    106.76000000    56.39000000    14.59000000
   H    108.79000000    54.55000000    13.44000000
   H    109.66000000    56.73000000    13.06000000
   H    108.08000000    57.21000000    12.30000000
   H    110.94000000    54.95000000    11.72000000
   H    110.48000000    54.78000000    10.11000000
   N    106.86000000    53.39000000    12.29000000
   C    107.64000000    52.32000000    12.87000000
   C    107.33000000    51.98000000    14.32000000
   O    107.27000000    52.90000000    15.13000000
   H    106.03000000    53.09000000    11.80000000
   H    108.71000000    52.51000000    12.74000000
   H    107.50000000    51.44000000    12.25000000
   N    107.17000000    50.69000000    14.61000000
   C    106.61000000    50.33000000    15.90000000
   C    107.22000000    49.09000000    16.54000000
   O    107.88000000    48.31000000    15.85000000
   C    105.17000000    49.97000000    15.56000000
   C    104.37000000    51.11000000    14.98000000
   C    104.03000000    52.16000000    15.85000000
   C    104.11000000    51.21000000    13.61000000
   C    103.50000000    53.32000000    15.26000000
   C    103.48000000    52.32000000    13.04000000
   C    103.25000000    53.43000000    13.88000000
   O    102.88000000    54.61000000    13.30000000
   H    107.24000000    50.02000000    13.85000000
   H    106.71000000    51.19000000    16.57000000
   H    104.68000000    49.77000000    16.51000000
   H    105.11000000    49.04000000    14.99000000
   H    104.21000000    51.97000000    16.89000000
   H    104.36000000    50.34000000    13.03000000
   H    103.22000000    54.19000000    15.83000000
   H    103.22000000    52.30000000    11.99000000
   H    103.15000000    54.51000000    12.38000000
   N    106.90000000    48.89000000    17.82000000
   C    107.33000000    47.67000000    18.47000000
   C    106.30000000    46.54000000    18.49000000
   O    106.69000000    45.43000000    18.84000000
   C    107.77000000    48.10000000    19.86000000
   C    106.62000000    48.45000000    20.80000000
   C    108.61000000    47.03000000    20.54000000
   C    106.85000000    48.86000000    22.25000000
   H    106.39000000    49.60000000    18.32000000
   H    108.26000000    47.29000000    18.04000000
   H    108.40000000    48.98000000    19.71000000
   H    106.03000000    47.53000000    20.78000000
   H    106.05000000    49.29000000    20.40000000
   H    107.97000000    46.27000000    20.99000000
   H    109.34000000    46.67000000    19.81000000
   H    109.21000000    47.57000000    21.27000000
   H    107.68000000    49.56000000    22.32000000
   H    105.98000000    49.35000000    22.68000000
   H    106.94000000    48.03000000    22.96000000
   N    105.07000000    46.86000000    18.07000000
   C    103.89000000    46.02000000    18.01000000
   C    103.11000000    46.08000000    19.32000000
   O    102.26000000    45.22000000    19.53000000
   C    103.05000000    46.36000000    16.78000000
   O    103.63000000    45.96000000    15.56000000
   H    104.97000000    47.85000000    17.91000000
   H    104.23000000    44.99000000    17.93000000
   H    102.93000000    47.42000000    16.60000000
   H    102.06000000    45.91000000    16.91000000
   H    103.08000000    46.13000000    14.79000000
   N    103.30000000    47.08000000    20.18000000
   C    102.50000000    47.24000000    21.38000000
   C    102.38000000    48.66000000    21.90000000
   O    103.25000000    49.52000000    21.74000000
   C    103.10000000    46.29000000    22.41000000
   H    104.07000000    47.73000000    20.08000000
   H    101.47000000    46.89000000    21.40000000
   H    102.78000000    46.51000000    23.43000000
   H    102.90000000    45.25000000    22.13000000
   H    104.15000000    46.55000000    22.51000000
   N    101.25000000    48.94000000    22.54000000
   C    100.97000000    50.03000000    23.46000000
   C    101.37000000    51.45000000    23.09000000
   O    101.58000000    52.25000000    24.01000000
   C    101.49000000    49.60000000    24.83000000
   H    100.53000000    48.23000000    22.51000000
   H     99.88000000    50.05000000    23.41000000
   H    101.15000000    50.22000000    25.66000000
   H    101.07000000    48.63000000    25.10000000
   H    102.56000000    49.44000000    24.88000000
   N    101.45000000    51.75000000    21.80000000
   C    101.48000000    53.09000000    21.23000000
   C    100.12000000    53.73000000    20.97000000
   O    100.06000000    54.96000000    20.90000000
   C    102.30000000    53.08000000    19.95000000
   C    103.81000000    52.86000000    20.10000000
   C    104.38000000    53.94000000    21.01000000
   O    104.75000000    55.01000000    20.49000000
   O    104.53000000    53.73000000    22.23000000
   H    101.14000000    51.03000000    21.16000000
   H    102.08000000    53.75000000    21.86000000
   H    102.18000000    53.97000000    19.34000000
   H    101.89000000    52.26000000    19.36000000
   H    104.35000000    52.93000000    19.15000000
   H    103.92000000    51.85000000    20.49000000
   N     99.14000000    52.84000000    20.80000000
   C     97.79000000    53.23000000    20.45000000
   H     97.15200000    53.15900000    21.33100000
   H     97.79100000    54.25700000    20.08500000
   H     97.41000000    52.56800000    19.67200000
   H     99.30000000    51.85000000    20.91000000
  Ca    106.33800000    56.54000000    18.93000000
   O    106.33800000    58.18000000    20.99000000
   H    107.21800000    58.36000000    21.34000000
   H    105.75800000    58.69000000    21.55000000
   O    108.19800000    55.02000000    20.09000000
   H    107.80800000    54.17000000    20.33000000
   H    109.13800000    54.85000000    20.10000000
   O    103.98800000    57.33000000    18.08000000
   H    103.25800000    57.25000000    18.69000000
   H    103.70800000    58.01000000    17.46000000
   O    105.83800000    54.13000000    17.42000000
   H    105.81800000    53.33000000    17.95000000
   H    106.03800000    53.83000000    16.54000000

Ca 1.70



