%chk=loop4.cluster30.chk
%nprocshared=48
%mem=10GB
%nosave
#b3lyp/svp scf=(tight,noincore) Test 
#IOP(5/87=12) Density=Current Pop=(MK,readradii) iop(6/33=2) iop(6/42=6)

loop4.cluster30 

   -3  1 
   C     61.08000000    58.01000000    79.46000000
   C     62.10000000    57.13000000    80.16000000
   O     63.19000000    56.82000000    79.69000000
   H     60.20300000    58.12600000    80.09700000
   H     61.51800000    58.98900000    79.26300000
   H     60.78500000    57.54700000    78.51800000
   N     61.72000000    56.56000000    81.31000000
   C     62.54000000    55.61000000    82.05000000
   C     63.80000000    56.25000000    82.62000000
   O     64.91000000    55.73000000    82.66000000
   C     62.81000000    54.29000000    81.33000000
   C     61.54000000    53.63000000    80.81000000
   O     61.62000000    52.78000000    79.90000000
   O     60.45000000    53.93000000    81.34000000
   H     60.88000000    56.85000000    81.78000000
   H     62.03000000    55.32000000    82.97000000
   H     63.32000000    53.64000000    82.04000000
   H     63.42000000    54.45000000    80.44000000
   N     63.61000000    57.53000000    82.95000000
   C     64.64000000    58.32000000    83.59000000
   C     64.10000000    58.85000000    84.91000000
   O     63.12000000    59.59000000    84.88000000
   C     65.05000000    59.42000000    82.61000000
   C     65.50000000    58.90000000    81.25000000
   C     66.03000000    60.42000000    83.22000000
   C     66.79000000    58.08000000    81.27000000
   H     62.67000000    57.85000000    82.77000000
   H     65.58000000    57.80000000    83.77000000
   H     64.14000000    60.01000000    82.47000000
   H     65.60000000    59.76000000    80.58000000
   H     64.70000000    58.32000000    80.81000000
   H     66.90000000    59.99000000    83.73000000
   H     66.35000000    61.18000000    82.51000000
   H     65.45000000    60.95000000    83.97000000
   H     66.49000000    57.10000000    81.61000000
   H     67.23000000    57.99000000    80.27000000
   H     67.50000000    58.55000000    81.95000000
   N     64.79000000    58.70000000    86.04000000
   C     65.90000000    57.82000000    86.34000000
   C     65.54000000    56.34000000    86.36000000
   O     66.41000000    55.51000000    86.11000000
   C     66.65000000    58.07000000    87.64000000
   C     66.61000000    59.57000000    87.91000000
   O     67.54000000    60.30000000    87.51000000
   O     65.66000000    59.97000000    88.62000000
   H     64.20000000    59.17000000    86.72000000
   H     66.71000000    57.88000000    85.62000000
   H     67.69000000    57.76000000    87.58000000
   H     66.02000000    57.63000000    88.42000000
   N     64.26000000    56.02000000    86.55000000
   C     63.70000000    54.69000000    86.74000000
   C     64.42000000    53.78000000    87.72000000
   O     64.60000000    54.04000000    88.90000000
   H     63.63000000    56.79000000    86.69000000
   H     63.81000000    54.25000000    85.75000000
   H     62.62000000    54.76000000    86.87000000
   N     64.99000000    52.66000000    87.26000000
   C     65.81000000    51.76000000    88.05000000
   C     67.20000000    51.53000000    87.47000000
   O     68.04000000    50.83000000    88.03000000
   C     65.05000000    50.44000000    88.11000000
   C     64.69000000    49.77000000    86.79000000
   O     65.27000000    50.16000000    85.75000000
   O     63.82000000    48.87000000    86.75000000
   H     64.97000000    52.34000000    86.30000000
   H     65.91000000    52.08000000    89.09000000
   H     64.12000000    50.50000000    88.66000000
   H     65.65000000    49.72000000    88.65000000
   N     67.60000000    52.22000000    86.40000000
   C     68.92000000    52.17000000    85.81000000
   C     69.04000000    51.11000000    84.72000000
   O     70.12000000    50.94000000    84.16000000
   H     66.98000000    52.98000000    86.14000000
   H     69.68000000    51.99000000    86.57000000
   H     69.21000000    53.11000000    85.34000000
   N     68.04000000    50.30000000    84.40000000
   C     68.07000000    49.18000000    83.49000000
   C     68.40000000    49.62000000    82.07000000
   O     69.36000000    49.10000000    81.50000000
   C     68.80000000    47.97000000    84.06000000
   C     67.97000000    47.22000000    85.10000000
   C     68.61000000    45.92000000    85.55000000
   N     67.98000000    45.31000000    86.56000000
   O     69.63000000    45.37000000    85.13000000
   H     67.23000000    50.28000000    85.02000000
   H     67.04000000    48.87000000    83.25000000
   H     69.76000000    48.23000000    84.49000000
   H     69.04000000    47.23000000    83.30000000
   H     66.96000000    46.94000000    84.78000000
   H     67.79000000    47.78000000    86.02000000
   H     67.18000000    45.77000000    86.97000000
   H     68.48000000    44.56000000    87.02000000
   N     67.61000000    50.53000000    81.49000000
   C     67.65000000    50.98000000    80.12000000
   C     67.28000000    49.88000000    79.13000000
   O     66.16000000    49.39000000    79.11000000
   C     66.86000000    52.26000000    79.88000000
   C     67.33000000    53.29000000    80.90000000
   C     66.97000000    52.91000000    78.50000000
   H     66.88000000    50.87000000    82.09000000
   H     68.67000000    51.31000000    79.92000000
   H     65.79000000    52.04000000    79.96000000
   H     67.02000000    53.04000000    81.91000000
   H     68.41000000    53.29000000    80.75000000
   H     66.97000000    54.27000000    80.60000000
   H     66.62000000    52.16000000    77.80000000
   H     66.37000000    53.82000000    78.46000000
   H     67.98000000    53.01000000    78.10000000
   N     68.20000000    49.43000000    78.27000000
   C     67.91000000    48.44000000    77.25000000
   C     67.37000000    49.14000000    76.02000000
   O     68.00000000    50.10000000    75.56000000
   C     69.07000000    47.52000000    76.88000000
   C     68.92000000    46.61000000    75.66000000
   N     67.82000000    45.87000000    75.64000000
   O     69.68000000    46.73000000    74.70000000
   H     69.13000000    49.82000000    78.33000000
   H     67.10000000    47.83000000    77.65000000
   H     69.26000000    46.89000000    77.75000000
   H     69.93000000    48.11000000    76.56000000
   H     67.16000000    45.86000000    76.41000000
   H     67.63000000    45.43000000    74.75000000
   N     66.43000000    48.52000000    75.31000000
   C     66.07000000    48.90000000    73.96000000
   C     64.67000000    48.43000000    73.56000000
   O     64.41000000    47.96000000    72.46000000
   C     67.17000000    48.39000000    73.03000000
   C     67.07000000    48.96000000    71.64000000
   C     67.20000000    50.35000000    71.46000000
   C     66.83000000    48.10000000    70.57000000
   C     67.05000000    50.88000000    70.17000000
   C     66.83000000    48.63000000    69.28000000
   C     66.96000000    50.02000000    69.06000000
   O     67.01000000    50.48000000    67.78000000
   H     65.93000000    47.74000000    75.72000000
   H     66.04000000    49.99000000    73.93000000
   H     67.16000000    47.31000000    72.93000000
   H     68.18000000    48.62000000    73.37000000
   H     67.49000000    50.97000000    72.29000000
   H     66.80000000    47.02000000    70.65000000
   H     67.19000000    51.93000000    69.96000000
   H     66.71000000    47.95000000    68.45000000
   H     67.02000000    49.75000000    67.15000000
   N     63.75000000    48.49000000    74.52000000
   C     62.35000000    48.19000000    74.32000000
   C     61.53000000    49.03000000    73.35000000
   O     60.74000000    48.45000000    72.61000000
   C     61.73000000    48.21000000    75.72000000
   C     60.38000000    47.50000000    75.79000000
   C     59.86000000    47.19000000    77.19000000
   O     60.13000000    47.88000000    78.19000000
   O     59.01000000    46.27000000    77.21000000
   H     64.02000000    48.85000000    75.43000000
   H     62.32000000    47.16000000    73.97000000
   H     61.82000000    49.19000000    76.18000000
   H     62.42000000    47.62000000    76.32000000
   H     60.51000000    46.57000000    75.25000000
   H     59.61000000    48.06000000    75.26000000
   N     61.72000000    50.34000000    73.20000000
   C     62.03000000    51.36000000    74.19000000
   C     63.06000000    52.30000000    73.60000000
   O     63.42000000    52.14000000    72.43000000
   C     60.78000000    52.14000000    74.58000000
   C     59.61000000    51.30000000    75.08000000
   C     58.55000000    52.12000000    75.80000000
   O     58.65000000    52.27000000    77.04000000
   O     57.63000000    52.66000000    75.15000000
   H     61.39000000    50.69000000    72.31000000
   H     62.46000000    50.85000000    75.05000000
   H     60.33000000    52.71000000    73.76000000
   H     61.04000000    52.75000000    75.44000000
   H     59.90000000    50.62000000    75.88000000
   H     59.19000000    50.78000000    74.22000000
   N     63.61000000    53.15000000    74.48000000
   C     64.75000000    54.02000000    74.27000000
   H     65.59300000    53.43200000    73.90800000
   H     64.49600000    54.78100000    73.53300000
   H     65.02000000    54.50000000    75.21100000
   H     63.29000000    53.14000000    75.44000000
  Ca     59.06000000    52.72000000    79.49000000
   O     58.84000000    51.36000000    81.92000000
   H     58.07000000    50.83000000    82.10000000
   H     59.44000000    51.17000000    82.65000000
   O     60.31000000    50.13000000    79.44000000
   H     60.97000000    49.79000000    80.04000000
   H     60.14000000    49.41000000    78.83000000
   O     57.10000000    50.76000000    79.30000000
   H     56.33000000    50.40000000    79.76000000
   H     57.37000000    50.06000000    78.71000000
   O     59.85000000    54.98000000    78.23000000
   H     60.69000000    54.93000000    77.77000000
   H     59.60000000    55.90000000    78.16000000

Ca 1.70



