%chk=loop2.cluster5.chk
%nprocshared=48
%mem=10GB
%nosave
#b3lyp/svp scf=(tight,noincore) Test 
#IOP(5/87=12) Density=Current Pop=(MK,readradii) iop(6/33=2) iop(6/42=6)

loop2.cluster5 

   -2  1 
   C     58.26000000    28.45000000    12.49000000
   C     58.85000000    28.52000000    11.09000000
   O     58.21000000    28.02000000    10.16000000
   H     57.24100000    28.06700000    12.43600000
   H     58.86500000    27.78600000    13.10700000
   H     58.24900000    29.44700000    12.93100000
   N     60.07000000    29.01000000    10.88000000
   C     60.58000000    29.37000000     9.57000000
   C     60.76000000    28.20000000     8.61000000
   O     60.90000000    28.46000000     7.41000000
   C     61.87000000    30.17000000     9.72000000
   C     62.31000000    30.97000000     8.50000000
   O     63.41000000    30.77000000     7.94000000
   O     61.42000000    31.75000000     8.10000000
   H     60.38000000    29.56000000    11.67000000
   H     59.85000000    30.00000000     9.07000000
   H     62.63000000    29.42000000     9.90000000
   H     61.84000000    30.84000000    10.58000000
   N     60.71000000    26.97000000     9.11000000
   C     60.61000000    25.74000000     8.34000000
   C     59.31000000    25.70000000     7.54000000
   O     59.29000000    24.97000000     6.56000000
   C     61.92000000    25.61000000     7.57000000
   H     60.58000000    26.89000000    10.11000000
   H     60.57000000    24.87000000     8.99000000
   H     62.73000000    25.73000000     8.29000000
   H     62.05000000    24.67000000     7.04000000
   H     62.03000000    26.36000000     6.78000000
   N     58.34000000    26.53000000     7.92000000
   C     56.96000000    26.48000000     7.47000000
   C     56.82000000    26.43000000     5.96000000
   O     55.88000000    25.85000000     5.42000000
   C     56.18000000    25.35000000     8.15000000
   C     54.67000000    25.40000000     7.96000000
   O     54.00000000    24.40000000     8.28000000
   O     54.09000000    26.48000000     7.70000000
   H     58.50000000    27.03000000     8.78000000
   H     56.44000000    27.42000000     7.66000000
   H     56.44000000    25.41000000     9.20000000
   H     56.57000000    24.41000000     7.75000000
   N     57.57000000    27.34000000     5.32000000
   C     57.52000000    27.41000000     3.87000000
   C     58.25000000    28.68000000     3.46000000
   O     59.09000000    29.24000000     4.16000000
   H     58.17000000    27.90000000     5.89000000
   H     56.50000000    27.40000000     3.50000000
   H     57.91000000    26.51000000     3.38000000
   N     57.99000000    29.02000000     2.20000000
   C     58.56000000    30.11000000     1.44000000
   C     57.97000000    31.42000000     1.94000000
   O     56.84000000    31.46000000     2.44000000
   C     58.43000000    29.87000000    -0.07000000
   C     57.08000000    30.18000000    -0.69000000
   N     56.95000000    31.29000000    -1.43000000
   O     56.07000000    29.50000000    -0.58000000
   H     57.20000000    28.51000000     1.82000000
   H     59.61000000    30.20000000     1.73000000
   H     58.70000000    28.83000000    -0.24000000
   H     59.13000000    30.52000000    -0.60000000
   H     57.77000000    31.86000000    -1.60000000
   H     56.14000000    31.34000000    -2.02000000
   N     58.64000000    32.56000000     1.77000000
   C     58.38000000    33.87000000     2.33000000
   C     58.51000000    33.90000000     3.85000000
   O     59.51000000    34.42000000     4.33000000
   H     59.47000000    32.41000000     1.21000000
   H     57.48000000    34.36000000     1.98000000
   H     59.20000000    34.48000000     1.97000000
   N     57.48000000    33.42000000     4.56000000
   C     57.31000000    33.38000000     6.00000000
   C     55.96000000    33.89000000     6.47000000
   O     55.01000000    33.87000000     5.69000000
   C     57.54000000    31.89000000     6.28000000
   C     57.97000000    31.51000000     7.69000000
   O     56.49000000    30.96000000     6.13000000
   H     56.67000000    33.16000000     4.03000000
   H     58.11000000    33.95000000     6.48000000
   H     58.39000000    31.69000000     5.64000000
   H     56.20000000    30.92000000     5.22000000
   H     57.32000000    31.93000000     8.45000000
   H     57.98000000    30.43000000     7.84000000
   H     58.94000000    31.95000000     7.95000000
   N     55.89000000    34.29000000     7.74000000
   C     54.77000000    34.49000000     8.63000000
   C     54.25000000    33.13000000     9.10000000
   O     54.92000000    32.10000000     9.13000000
   C     55.08000000    35.58000000     9.64000000
   C     53.91000000    35.83000000    10.59000000
   C     56.38000000    35.49000000    10.43000000
   C     54.05000000    37.20000000    11.24000000
   H     56.78000000    34.38000000     8.21000000
   H     53.95000000    34.85000000     8.00000000
   H     55.28000000    36.53000000     9.13000000
   H     54.04000000    35.00000000    11.29000000
   H     52.98000000    35.78000000    10.02000000
   H     56.38000000    34.56000000    11.01000000
   H     57.18000000    35.59000000     9.70000000
   H     56.53000000    36.35000000    11.08000000
   H     54.19000000    37.96000000    10.47000000
   H     53.13000000    37.44000000    11.78000000
   H     54.84000000    37.35000000    11.97000000
   N     52.94000000    33.07000000     9.35000000
   C     52.13000000    31.90000000     9.12000000
   C     50.72000000    32.28000000     8.70000000
   O     50.62000000    32.84000000     7.61000000
   C     52.14000000    31.00000000    10.36000000
   C     51.59000000    29.61000000    10.09000000
   O     52.31000000    28.68000000     9.69000000
   O     50.39000000    29.38000000    10.35000000
   H     52.55000000    34.00000000     9.37000000
   H     52.54000000    31.31000000     8.30000000
   H     51.62000000    31.44000000    11.21000000
   H     53.13000000    30.80000000    10.77000000
   N     49.64000000    32.01000000     9.44000000
   C     48.34000000    31.64000000     8.91000000
   C     47.61000000    30.53000000     9.64000000
   O     47.21000000    29.56000000     9.01000000
   C     47.52000000    32.92000000     8.77000000
   C     46.14000000    32.61000000     8.24000000
   C     45.99000000    32.08000000     6.95000000
   C     45.03000000    32.99000000     9.00000000
   C     44.69000000    31.86000000     6.46000000
   C     43.73000000    32.74000000     8.55000000
   C     43.60000000    32.14000000     7.29000000
   H     49.77000000    31.62000000    10.36000000
   H     48.53000000    31.28000000     7.90000000
   H     47.97000000    33.59000000     8.03000000
   H     47.50000000    33.40000000     9.75000000
   H     46.78000000    31.65000000     6.36000000
   H     45.18000000    33.34000000    10.01000000
   H     44.62000000    31.54000000     5.44000000
   H     42.96000000    33.15000000     9.19000000
   H     42.61000000    31.94000000     6.91000000
   N     47.52000000    30.45000000    10.98000000
   C     47.93000000    31.47000000    11.92000000
   C     48.97000000    31.01000000    12.93000000
   O     49.23000000    31.71000000    13.90000000
   C     46.66000000    31.98000000    12.59000000
   C     45.95000000    30.64000000    12.74000000
   C     46.47000000    29.72000000    11.64000000
   H     48.40000000    32.38000000    11.54000000
   H     46.85000000    32.43000000    13.57000000
   H     46.03000000    32.64000000    11.99000000
   H     46.21000000    30.10000000    13.65000000
   H     44.87000000    30.68000000    12.62000000
   H     46.85000000    28.79000000    12.07000000
   H     45.74000000    29.46000000    10.87000000
   N     49.49000000    29.79000000    12.84000000
   C     50.15000000    29.05000000    13.90000000
   C     51.54000000    29.62000000    14.16000000
   O     52.38000000    29.44000000    13.27000000
   C     50.17000000    27.60000000    13.45000000
   C     48.87000000    26.81000000    13.59000000
   C     48.48000000    26.71000000    15.06000000
   O     49.24000000    26.05000000    15.80000000
   O     47.41000000    27.27000000    15.39000000
   H     49.33000000    29.22000000    12.01000000
   H     49.59000000    29.04000000    14.83000000
   H     50.88000000    27.12000000    14.13000000
   H     50.42000000    27.50000000    12.39000000
   H     49.09000000    25.82000000    13.20000000
   H     48.05000000    27.27000000    13.05000000
   N     51.72000000    30.39000000    15.23000000
   C     52.92000000    31.14000000    15.54000000
   H     53.70600000    30.87600000    14.83300000
   H     52.71100000    32.20700000    15.46800000
   H     53.24700000    30.90100000    16.55200000
   H     50.90000000    30.51000000    15.80000000
  Ca     52.33000000    28.24000000     7.10000000
   O     53.90000000    27.94000000     4.91000000
   H     54.59000000    27.28000000     4.96000000
   H     54.02000000    28.35000000     4.06000000
   O     50.99000000    26.99000000     5.00000000
   H     50.57000000    27.16000000     4.16000000
   H     50.68000000    26.12000000     5.25000000
   O     54.45000000    29.80000000     7.59000000
   H     54.84000000    30.59000000     7.21000000
   H     54.91000000    29.69000000     8.42000000
   O     50.80000000    26.00000000     7.83000000
   H     50.84000000    25.82000000     8.77000000
   H     51.11000000    25.19000000     7.42000000
   O     52.25000000    30.37000000     5.61000000
   H     51.54000000    30.57000000     5.00000000
   H     53.05000000    30.63000000     5.15000000
   O     49.95000000    29.36000000     6.74000000
   H     49.08000000    29.05000000     6.96000000
   H     49.80000000    30.14000000     6.20000000

Ca 1.70



