%chk=loop2.cluster229.chk
%nprocshared=48
%mem=10GB
%nosave
#b3lyp/svp scf=(tight,noincore) Test 
#IOP(5/87=12) Density=Current Pop=(MK,readradii) iop(6/33=2) iop(6/42=6)

loop2.cluster229 

   -2  1 
   C     64.00000000    75.22000000    10.05000000
   C     62.76000000    75.86000000    10.65000000
   O     62.67000000    76.90000000    11.32000000
   H     64.82900000    75.30800000    10.75200000
   H     63.80500000    74.16600000     9.85000000
   H     64.25700000    75.72600000     9.11900000
   N     61.55000000    75.38000000    10.36000000
   C     60.30000000    75.82000000    10.94000000
   C     60.27000000    75.48000000    12.43000000
   O     60.17000000    74.33000000    12.85000000
   C     59.24000000    75.06000000    10.16000000
   C     57.80000000    75.45000000    10.46000000
   O     56.92000000    74.71000000     9.98000000
   O     57.55000000    76.39000000    11.25000000
   H     61.54000000    74.65000000     9.66000000
   H     60.04000000    76.87000000    10.81000000
   H     59.50000000    74.00000000    10.21000000
   H     59.44000000    75.25000000     9.10000000
   N     60.31000000    76.54000000    13.24000000
   C     60.26000000    76.36000000    14.67000000
   C     58.86000000    76.14000000    15.22000000
   O     58.69000000    76.16000000    16.44000000
   C     61.05000000    77.43000000    15.42000000
   H     60.51000000    77.46000000    12.88000000
   H     60.84000000    75.44000000    14.77000000
   H     61.99000000    77.74000000    14.98000000
   H     60.47000000    78.35000000    15.49000000
   H     61.20000000    77.19000000    16.48000000
   N     57.86000000    75.99000000    14.35000000
   C     56.54000000    75.72000000    14.89000000
   C     55.96000000    74.38000000    14.46000000
   O     55.05000000    73.85000000    15.08000000
   C     55.65000000    76.87000000    14.43000000
   C     56.26000000    78.27000000    14.45000000
   O     56.61000000    78.83000000    13.39000000
   O     56.29000000    78.85000000    15.56000000
   H     58.04000000    76.11000000    13.36000000
   H     56.46000000    75.68000000    15.97000000
   H     54.72000000    76.90000000    15.00000000
   H     55.37000000    76.70000000    13.39000000
   N     56.38000000    73.81000000    13.33000000
   C     55.84000000    72.65000000    12.65000000
   C     54.48000000    72.89000000    12.03000000
   O     53.82000000    71.92000000    11.66000000
   H     57.19000000    74.26000000    12.91000000
   H     55.69000000    71.78000000    13.28000000
   H     56.55000000    72.27000000    11.91000000
   N     54.11000000    74.15000000    11.77000000
   C     52.89000000    74.40000000    11.04000000
   C     53.09000000    74.38000000     9.53000000
   O     52.18000000    74.66000000     8.76000000
   C     52.19000000    75.66000000    11.52000000
   C     51.93000000    75.62000000    13.02000000
   N     52.16000000    76.81000000    13.57000000
   O     51.58000000    74.62000000    13.64000000
   H     54.62000000    74.91000000    12.20000000
   H     52.18000000    73.59000000    11.24000000
   H     51.21000000    75.69000000    11.04000000
   H     52.76000000    76.58000000    11.40000000
   H     52.50000000    77.55000000    12.96000000
   H     51.77000000    76.92000000    14.50000000
   N     54.27000000    74.01000000     9.02000000
   C     54.66000000    73.93000000     7.63000000
   C     54.53000000    75.17000000     6.76000000
   O     54.10000000    75.06000000     5.62000000
   H     55.03000000    73.87000000     9.68000000
   H     54.11000000    73.13000000     7.15000000
   H     55.72000000    73.68000000     7.62000000
   N     54.96000000    76.32000000     7.29000000
   C     55.27000000    77.52000000     6.54000000
   C     56.59000000    78.18000000     6.92000000
   O     56.82000000    78.25000000     8.12000000
   C     54.19000000    78.56000000     6.83000000
   C     52.88000000    78.23000000     6.12000000
   O     53.99000000    78.85000000     8.19000000
   H     55.21000000    76.30000000     8.27000000
   H     55.29000000    77.32000000     5.47000000
   H     54.40000000    79.57000000     6.46000000
   H     53.15000000    79.29000000     8.32000000
   H     52.31000000    79.15000000     5.96000000
   H     53.13000000    77.87000000     5.12000000
   H     52.22000000    77.55000000     6.64000000
   N     57.33000000    78.70000000     5.94000000
   C     58.52000000    79.51000000     6.14000000
   C     58.26000000    81.00000000     6.33000000
   O     57.58000000    81.66000000     5.54000000
   C     59.41000000    79.25000000     4.93000000
   C     59.84000000    77.78000000     4.90000000
   C     60.68000000    80.09000000     5.03000000
   C     60.66000000    77.25000000     6.07000000
   H     57.04000000    78.56000000     4.98000000
   H     59.13000000    79.13000000     6.95000000
   H     58.90000000    79.50000000     4.00000000
   H     60.33000000    77.57000000     3.95000000
   H     58.89000000    77.25000000     4.83000000
   H     61.47000000    79.76000000     4.36000000
   H     60.42000000    81.10000000     4.72000000
   H     61.18000000    79.94000000     5.98000000
   H     61.06000000    76.25000000     5.87000000
   H     61.50000000    77.85000000     6.43000000
   H     60.07000000    77.18000000     6.99000000
   N     58.78000000    81.47000000     7.46000000
   C     58.83000000    82.87000000     7.85000000
   C     60.21000000    83.41000000     7.51000000
   O     61.13000000    82.67000000     7.19000000
   C     58.35000000    82.95000000     9.29000000
   C     56.96000000    82.40000000     9.56000000
   O     56.82000000    81.21000000     9.90000000
   O     56.05000000    83.24000000     9.73000000
   H     59.40000000    80.89000000     8.00000000
   H     58.05000000    83.42000000     7.33000000
   H     58.38000000    83.99000000     9.62000000
   H     58.93000000    82.38000000    10.03000000
   N     60.32000000    84.75000000     7.52000000
   C     61.52000000    85.36000000     6.99000000
   C     62.79000000    85.14000000     7.80000000
   O     63.83000000    84.91000000     7.18000000
   C     61.24000000    86.85000000     6.78000000
   C     62.38000000    87.67000000     6.23000000
   C     62.82000000    87.37000000     4.94000000
   C     63.03000000    88.65000000     7.00000000
   C     63.96000000    88.02000000     4.43000000
   C     64.10000000    89.33000000     6.41000000
   C     64.57000000    89.07000000     5.12000000
   H     59.52000000    85.32000000     7.75000000
   H     61.76000000    85.02000000     5.98000000
   H     60.79000000    87.29000000     7.66000000
   H     60.46000000    86.96000000     6.02000000
   H     62.41000000    86.56000000     4.36000000
   H     62.60000000    88.87000000     7.96000000
   H     64.34000000    87.80000000     3.45000000
   H     64.56000000    90.06000000     7.06000000
   H     65.34000000    89.59000000     4.58000000
   N     62.82000000    85.06000000     9.13000000
   C     63.98000000    84.60000000     9.86000000
   C     64.44000000    83.17000000     9.61000000
   O     65.62000000    82.84000000     9.60000000
   C     63.59000000    84.67000000    11.34000000
   C     62.43000000    85.66000000    11.36000000
   C     61.73000000    85.39000000    10.03000000
   H     64.80000000    85.28000000     9.63000000
   H     63.26000000    83.74000000    11.81000000
   H     64.43000000    84.98000000    11.96000000
   H     61.78000000    85.60000000    12.24000000
   H     62.87000000    86.66000000    11.37000000
   H     61.07000000    84.55000000    10.25000000
   H     61.12000000    86.22000000     9.68000000
   N     63.51000000    82.28000000     9.25000000
   C     63.72000000    80.90000000     8.86000000
   C     64.27000000    80.83000000     7.44000000
   O     65.14000000    80.00000000     7.16000000
   C     62.42000000    80.10000000     8.97000000
   C     61.93000000    80.06000000    10.41000000
   C     60.56000000    79.43000000    10.61000000
   O     59.82000000    79.31000000     9.61000000
   O     60.06000000    79.12000000    11.71000000
   H     62.59000000    82.63000000     9.07000000
   H     64.50000000    80.42000000     9.45000000
   H     62.60000000    79.10000000     8.59000000
   H     61.64000000    80.56000000     8.37000000
   H     62.01000000    81.03000000    10.90000000
   H     62.62000000    79.42000000    10.96000000
   N     63.77000000    81.68000000     6.55000000
   C     64.20000000    81.85000000     5.18000000
   H     65.23000000    81.50900000     5.07800000
   H     63.55700000    81.26500000     4.52200000
   H     64.13800000    82.90400000     4.90700000
   H     62.93000000    82.15000000     6.87000000
  Ca     57.57000000    79.12000000    10.98000000
   O     57.60000000    81.30000000    12.96000000
   H     56.66000000    81.29000000    13.15000000
   H     58.01000000    81.14000000    13.80000000
   O     55.15000000    78.53000000    10.67000000
   H     54.54000000    78.69000000    11.38000000
   H     54.59000000    78.48000000     9.89000000

Ca 1.70



