%chk=loop4.cluster13.chk
%nprocshared=48
%mem=10GB
%nosave
#b3lyp/svp scf=(tight,noincore) Test 
#IOP(5/87=12) Density=Current Pop=(MK,readradii) iop(6/33=2) iop(6/42=6)

loop4.cluster13 

   -3  1 
   C     47.82000000    25.95000000    41.10000000
   C     47.94000000    25.41000000    42.52000000
   O     48.61000000    26.06000000    43.33000000
   H     47.29800000    26.90600000    41.11900000
   H     48.81500000    26.08900000    40.67800000
   H     47.26000000    25.24300000    40.48800000
   N     47.40000000    24.24000000    42.85000000
   C     47.51000000    23.56000000    44.13000000
   C     46.87000000    24.35000000    45.26000000
   O     47.59000000    24.97000000    46.04000000
   C     48.92000000    23.05000000    44.44000000
   C     49.61000000    22.55000000    43.18000000
   O     50.62000000    23.12000000    42.72000000
   O     49.05000000    21.70000000    42.46000000
   H     46.74000000    23.84000000    42.19000000
   H     46.88000000    22.68000000    44.03000000
   H     48.79000000    22.23000000    45.15000000
   H     49.53000000    23.85000000    44.86000000
   N     45.54000000    24.45000000    45.27000000
   C     44.71000000    25.13000000    46.25000000
   C     43.90000000    24.04000000    46.94000000
   O     43.25000000    23.23000000    46.29000000
   C     43.87000000    26.27000000    45.67000000
   C     44.74000000    27.25000000    44.89000000
   C     43.01000000    27.01000000    46.68000000
   C     44.02000000    28.41000000    44.20000000
   H     45.01000000    23.88000000    44.63000000
   H     45.45000000    25.56000000    46.92000000
   H     43.18000000    25.78000000    44.99000000
   H     45.37000000    26.69000000    44.20000000
   H     45.39000000    27.69000000    45.65000000
   H     42.20000000    26.42000000    47.12000000
   H     43.58000000    27.59000000    47.40000000
   H     42.44000000    27.82000000    46.22000000
   H     43.16000000    27.96000000    43.71000000
   H     43.56000000    29.18000000    44.82000000
   H     44.68000000    28.82000000    43.44000000
   N     43.82000000    23.98000000    48.27000000
   C     44.30000000    24.95000000    49.23000000
   C     45.65000000    24.76000000    49.91000000
   O     46.39000000    25.73000000    50.10000000
   C     43.33000000    25.22000000    50.38000000
   C     42.69000000    24.05000000    51.11000000
   O     41.98000000    24.24000000    52.13000000
   O     42.88000000    22.90000000    50.67000000
   H     43.36000000    23.21000000    48.73000000
   H     44.44000000    25.89000000    48.70000000
   H     42.49000000    25.84000000    50.04000000
   H     43.77000000    25.88000000    51.12000000
   N     45.86000000    23.52000000    50.35000000
   C     46.95000000    23.08000000    51.20000000
   C     46.84000000    23.51000000    52.65000000
   O     45.81000000    23.23000000    53.27000000
   H     45.15000000    22.84000000    50.10000000
   H     47.88000000    23.47000000    50.79000000
   H     46.99000000    22.01000000    51.02000000
   N     47.69000000    24.37000000    53.23000000
   C     47.43000000    25.18000000    54.41000000
   C     47.34000000    26.65000000    54.01000000
   O     47.08000000    27.51000000    54.85000000
   C     48.56000000    25.02000000    55.42000000
   C     49.95000000    25.44000000    54.97000000
   O     50.25000000    25.78000000    53.81000000
   O     50.85000000    25.29000000    55.82000000
   H     48.50000000    24.57000000    52.68000000
   H     46.47000000    24.94000000    54.88000000
   H     48.60000000    23.96000000    55.67000000
   H     48.37000000    25.56000000    56.35000000
   N     47.36000000    27.01000000    52.73000000
   C     47.44000000    28.38000000    52.28000000
   C     48.78000000    29.07000000    52.53000000
   O     48.83000000    30.27000000    52.27000000
   H     47.48000000    26.31000000    52.01000000
   H     46.68000000    29.01000000    52.74000000
   H     47.23000000    28.44000000    51.22000000
   N     49.82000000    28.34000000    52.94000000
   C     51.10000000    28.91000000    53.30000000
   C     51.86000000    29.53000000    52.14000000
   O     52.66000000    30.43000000    52.35000000
   C     50.95000000    29.71000000    54.59000000
   C     50.44000000    28.91000000    55.79000000
   C     50.49000000    29.70000000    57.09000000
   N     50.41000000    29.09000000    58.27000000
   O     50.63000000    30.92000000    57.01000000
   H     49.71000000    27.35000000    53.11000000
   H     51.74000000    28.09000000    53.63000000
   H     50.23000000    30.51000000    54.41000000
   H     51.86000000    30.23000000    54.89000000
   H     51.13000000    28.09000000    55.96000000
   H     49.43000000    28.53000000    55.59000000
   H     50.40000000    28.08000000    58.18000000
   H     50.31000000    29.65000000    59.10000000
   N     51.67000000    28.97000000    50.94000000
   C     52.27000000    29.40000000    49.69000000
   C     53.48000000    28.51000000    49.48000000
   O     53.36000000    27.29000000    49.56000000
   C     51.28000000    29.40000000    48.52000000
   C     49.91000000    29.98000000    48.86000000
   C     51.84000000    30.28000000    47.41000000
   H     51.00000000    28.21000000    50.94000000
   H     52.66000000    30.41000000    49.67000000
   H     51.17000000    28.35000000    48.25000000
   H     49.31000000    30.02000000    47.95000000
   H     49.44000000    29.40000000    49.66000000
   H     49.99000000    31.02000000    49.18000000
   H     51.17000000    30.23000000    46.54000000
   H     52.08000000    31.25000000    47.83000000
   H     52.74000000    29.87000000    46.95000000
   N     54.63000000    29.10000000    49.13000000
   C     55.97000000    28.57000000    48.99000000
   C     56.71000000    29.27000000    47.86000000
   O     56.58000000    30.45000000    47.54000000
   C     56.71000000    28.81000000    50.31000000
   C     58.04000000    28.07000000    50.37000000
   N     58.03000000    26.76000000    50.58000000
   O     59.08000000    28.72000000    50.35000000
   H     54.51000000    30.10000000    49.09000000
   H     55.91000000    27.49000000    48.84000000
   H     56.09000000    28.51000000    51.15000000
   H     56.95000000    29.86000000    50.46000000
   H     57.18000000    26.22000000    50.59000000
   H     58.94000000    26.32000000    50.64000000
   N     57.62000000    28.58000000    47.17000000
   C     58.26000000    29.05000000    45.96000000
   C     58.72000000    27.86000000    45.13000000
   O     59.88000000    27.58000000    44.85000000
   C     59.48000000    29.93000000    46.22000000
   C     59.99000000    30.71000000    45.03000000
   C     59.47000000    30.63000000    43.74000000
   C     61.02000000    31.63000000    45.25000000
   C     59.92000000    31.41000000    42.67000000
   C     61.56000000    32.39000000    44.20000000
   C     60.96000000    32.32000000    42.93000000
   O     61.27000000    33.24000000    41.97000000
   H     57.73000000    27.60000000    47.40000000
   H     57.62000000    29.60000000    45.28000000
   H     60.18000000    29.35000000    46.83000000
   H     59.22000000    30.70000000    46.94000000
   H     58.74000000    29.87000000    43.50000000
   H     61.54000000    31.80000000    46.18000000
   H     59.48000000    31.39000000    41.68000000
   H     62.35000000    33.11000000    44.34000000
   H     61.85000000    33.89000000    42.38000000
   N     57.75000000    26.99000000    44.84000000
   C     57.92000000    25.57000000    44.60000000
   C     58.06000000    25.31000000    43.11000000
   O     59.01000000    24.66000000    42.67000000
   C     56.84000000    24.66000000    45.18000000
   C     56.93000000    23.15000000    44.98000000
   C     58.01000000    22.46000000    45.80000000
   O     57.60000000    21.78000000    46.77000000
   O     59.20000000    22.61000000    45.48000000
   H     56.79000000    27.29000000    44.93000000
   H     58.90000000    25.29000000    44.99000000
   H     55.94000000    24.98000000    44.66000000
   H     56.64000000    25.03000000    46.19000000
   H     57.06000000    22.86000000    43.93000000
   H     55.98000000    22.67000000    45.20000000
   N     57.26000000    25.82000000    42.17000000
   C     55.99000000    26.50000000    42.29000000
   C     55.87000000    27.66000000    41.30000000
   O     56.78000000    27.96000000    40.52000000
   C     54.85000000    25.52000000    42.05000000
   C     54.69000000    25.02000000    40.62000000
   C     53.50000000    24.10000000    40.39000000
   O     52.34000000    24.44000000    40.71000000
   O     53.64000000    22.94000000    39.97000000
   H     57.58000000    25.58000000    41.24000000
   H     55.97000000    26.84000000    43.33000000
   H     53.92000000    26.00000000    42.35000000
   H     54.87000000    24.65000000    42.72000000
   H     55.53000000    24.39000000    40.32000000
   H     54.76000000    25.84000000    39.90000000
   N     54.76000000    28.39000000    41.33000000
   C     54.36000000    29.59000000    40.61000000
   H     53.45900000    30.00200000    41.06400000
   H     55.16100000    30.32800000    40.66000000
   H     54.16000000    29.34000000    39.56800000
   H     54.15000000    28.02000000    42.05000000
  Ca     51.04000000    22.19000000    40.27000000
   O     51.66000000    21.94000000    37.69000000
   H     52.32000000    22.15000000    37.02000000
   H     50.90000000    21.65000000    37.19000000
   O     51.91000000    19.82000000    41.30000000
   H     52.79000000    19.52000000    41.52000000
   H     51.38000000    19.03000000    41.27000000
   O     49.60000000    20.23000000    39.54000000
   H     49.39000000    19.71000000    38.77000000
   H     49.16000000    19.77000000    40.26000000

Ca 1.70



