%chk=loop1.cluster136.chk
%nprocshared=48
%mem=10GB
%nosave
#b3lyp/svp scf=(tight,noincore) Test 
#IOP(5/87=12) Density=Current Pop=(MK,readradii) iop(6/33=2) iop(6/42=6)

loop1.cluster136 

   0  1 
   C     46.85000000    38.92000000     8.37000000
   C     47.27000000    38.89000000     6.90000000
   O     48.24000000    39.51000000     6.48000000
   H     45.81700000    38.58300000     8.45900000
   H     47.49800000    38.26000000     8.94700000
   H     46.93400000    39.93700000     8.75200000
   N     46.43000000    38.20000000     6.12000000
   C     46.66000000    37.94000000     4.71000000
   C     45.83000000    38.82000000     3.79000000
   O     45.23000000    38.37000000     2.82000000
   C     46.55000000    36.45000000     4.38000000
   C     45.20000000    35.84000000     4.75000000
   O     44.78000000    34.83000000     4.13000000
   O     44.56000000    36.26000000     5.73000000
   H     45.62000000    37.74000000     6.51000000
   H     47.70000000    38.23000000     4.59000000
   H     47.22000000    35.94000000     5.06000000
   H     46.79000000    36.24000000     3.34000000
   N     45.98000000    40.11000000     4.12000000
   C     45.48000000    41.19000000     3.29000000
   C     46.63000000    42.19000000     3.27000000
   O     46.68000000    43.07000000     4.13000000
   C     44.19000000    41.80000000     3.83000000
   C     43.01000000    40.84000000     3.81000000
   C     42.46000000    40.51000000     2.42000000
   C     41.20000000    39.68000000     2.22000000
   N     41.48000000    38.27000000     2.54000000
   H     46.67000000    40.31000000     4.82000000
   H     45.42000000    40.92000000     2.23000000
   H     43.94000000    42.72000000     3.31000000
   H     44.29000000    42.03000000     4.89000000
   H     42.21000000    41.29000000     4.40000000
   H     43.31000000    39.92000000     4.32000000
   H     43.24000000    39.93000000     1.92000000
   H     42.27000000    41.36000000     1.77000000
   H     40.98000000    39.73000000     1.16000000
   H     40.36000000    40.14000000     2.73000000
   H     42.26000000    37.98000000     1.96000000
   H     41.69000000    38.20000000     3.52000000
   H     40.65000000    37.74000000     2.31000000
   N     47.59000000    42.15000000     2.35000000
   C     47.70000000    41.49000000     1.06000000
   C     46.58000000    41.76000000     0.06000000
   O     45.54000000    42.37000000     0.29000000
   C     48.04000000    40.02000000     1.27000000
   C     49.17000000    39.88000000     2.28000000
   O     50.34000000    39.64000000     1.90000000
   O     48.93000000    40.05000000     3.49000000
   H     48.24000000    42.91000000     2.44000000
   H     48.56000000    42.08000000     0.72000000
   H     48.36000000    39.61000000     0.31000000
   H     47.24000000    39.36000000     1.60000000
   N     46.77000000    41.46000000    -1.22000000
   C     47.88000000    40.80000000    -1.88000000
   C     47.71000000    40.96000000    -3.39000000
   O     47.26000000    42.02000000    -3.81000000
   H     46.06000000    41.83000000    -1.84000000
   H     47.78000000    39.75000000    -1.61000000
   H     48.85000000    41.22000000    -1.59000000
   N     48.19000000    39.98000000    -4.17000000
   C     48.74000000    38.68000000    -3.86000000
   C     47.61000000    37.75000000    -3.47000000
   O     46.67000000    37.59000000    -4.25000000
   C     49.59000000    38.04000000    -4.95000000
   C     50.15000000    36.68000000    -4.56000000
   O     51.33000000    36.68000000    -4.15000000
   O     49.39000000    35.69000000    -4.64000000
   H     48.04000000    40.10000000    -5.16000000
   H     49.46000000    38.80000000    -3.05000000
   H     50.44000000    38.70000000    -5.14000000
   H     49.09000000    38.02000000    -5.92000000
   N     47.76000000    37.11000000    -2.31000000
   C     46.79000000    36.21000000    -1.72000000
   C     47.17000000    35.71000000    -0.33000000
   O     46.47000000    35.92000000     0.66000000
   H     48.51000000    37.44000000    -1.71000000
   H     46.77000000    35.32000000    -2.34000000
   H     45.79000000    36.64000000    -1.68000000
   N     48.30000000    35.02000000    -0.23000000
   C     48.89000000    34.63000000     1.03000000
   C     49.63000000    35.79000000     1.69000000
   O     50.12000000    36.67000000     0.99000000
   C     49.79000000    33.41000000     0.85000000
   C     48.97000000    32.13000000     0.68000000
   O     50.64000000    33.09000000     1.92000000
   H     48.74000000    34.66000000    -1.06000000
   H     48.01000000    34.42000000     1.63000000
   H     50.46000000    33.56000000     0.00000000
   H     50.18000000    32.82000000     2.72000000
   H     48.26000000    31.97000000     1.50000000
   H     48.47000000    32.06000000    -0.28000000
   H     49.72000000    31.34000000     0.79000000
   N     49.69000000    35.78000000     3.03000000
   C     50.52000000    36.70000000     3.78000000
   C     51.99000000    36.86000000     3.40000000
   O     52.56000000    37.92000000     3.63000000
   C     50.42000000    36.30000000     5.25000000
   C     50.71000000    37.43000000     6.24000000
   C     51.20000000    35.02000000     5.54000000
   C     50.21000000    37.20000000     7.67000000
   H     49.14000000    35.08000000     3.50000000
   H     50.16000000    37.72000000     3.72000000
   H     49.35000000    36.17000000     5.40000000
   H     50.35000000    38.39000000     5.89000000
   H     51.79000000    37.48000000     6.34000000
   H     51.19000000    34.80000000     6.61000000
   H     50.80000000    34.27000000     4.86000000
   H     52.27000000    35.21000000     5.51000000
   H     49.12000000    37.09000000     7.74000000
   H     50.42000000    36.19000000     8.01000000
   H     50.50000000    37.94000000     8.41000000
   N     52.48000000    35.81000000     2.74000000
   C     53.89000000    35.66000000     2.44000000
   C     54.84000000    35.66000000     3.63000000
   O     55.38000000    34.60000000     3.95000000
   C     54.37000000    36.49000000     1.26000000
   C     55.78000000    36.12000000     0.81000000
   O     54.26000000    37.87000000     1.53000000
   H     51.85000000    35.22000000     2.20000000
   H     53.97000000    34.68000000     1.99000000
   H     53.69000000    36.34000000     0.42000000
   H     54.60000000    38.34000000     0.76000000
   H     55.84000000    35.09000000     0.47000000
   H     56.05000000    36.75000000    -0.03000000
   H     56.56000000    36.24000000     1.58000000
   N     54.93000000    36.74000000     4.41000000
   C     55.81000000    36.96000000     5.54000000
   C     57.30000000    36.89000000     5.25000000
   O     57.85000000    36.12000000     4.46000000
   C     55.39000000    36.10000000     6.74000000
   C     55.82000000    36.70000000     8.07000000
   O     55.90000000    34.79000000     6.64000000
   H     54.24000000    37.45000000     4.26000000
   H     55.60000000    37.99000000     5.80000000
   H     54.30000000    36.07000000     6.73000000
   H     55.79000000    34.58000000     5.71000000
   H     55.51000000    36.05000000     8.89000000
   H     56.91000000    36.73000000     8.03000000
   H     55.46000000    37.73000000     8.13000000
   N     58.10000000    37.69000000     5.96000000
   C     59.55000000    37.70000000     5.97000000
   C     60.33000000    38.98000000     5.74000000
   O     61.54000000    38.87000000     5.54000000
   C     60.04000000    37.07000000     7.27000000
   C     59.57000000    35.64000000     7.53000000
   C     60.29000000    34.73000000     6.54000000
   C     60.25000000    33.24000000     6.87000000
   N     61.12000000    32.54000000     5.92000000
   H     57.54000000    38.31000000     6.52000000
   H     59.87000000    37.10000000     5.11000000
   H     59.58000000    37.66000000     8.06000000
   H     61.12000000    37.20000000     7.31000000
   H     58.51000000    35.52000000     7.32000000
   H     59.76000000    35.42000000     8.58000000
   H     61.33000000    35.05000000     6.49000000
   H     59.94000000    34.88000000     5.52000000
   H     59.27000000    32.76000000     6.82000000
   H     60.54000000    33.09000000     7.91000000
   H     62.05000000    32.90000000     5.76000000
   H     61.19000000    31.57000000     6.19000000
   H     60.65000000    32.62000000     5.03000000
   N     59.83000000    40.21000000     5.66000000
   C     58.57000000    40.86000000     6.00000000
   C     58.10000000    40.48000000     7.39000000
   O     57.19000000    39.67000000     7.55000000
   C     57.50000000    40.75000000     4.91000000
   C     56.18000000    41.43000000     5.26000000
   C     55.00000000    41.13000000     4.35000000
   O     54.88000000    40.06000000     3.72000000
   O     54.03000000    41.91000000     4.25000000
   H     60.55000000    40.83000000     5.32000000
   H     58.76000000    41.93000000     6.03000000
   H     57.30000000    39.70000000     4.74000000
   H     57.90000000    41.17000000     3.99000000
   H     56.31000000    42.51000000     5.28000000
   H     55.85000000    41.12000000     6.26000000
   N     58.74000000    41.15000000     8.36000000
   C     58.32000000    41.17000000     9.74000000
   H     57.28900000    40.82300000     9.81000000
   H     58.96400000    40.51400000    10.32600000
   H     58.38800000    42.18700000    10.12600000
   H     59.54000000    41.73000000     8.15000000
  Ca     52.58000000    40.44000000     2.62000000
   O     52.50000000    40.43000000    -0.12300000
   H     52.20000000    39.63000000    -0.56300000
   H     52.63000000    41.06000000    -0.83300000
   O     50.97000000    40.98000000     4.78000000
   H     50.70000000    41.60000000     5.46000000
   H     50.17000000    40.48000000     4.59000000
   O     51.49000000    42.70000000     1.91000000
   H     50.97000000    43.09000000     2.61000000
   H     50.94000000    42.77000000     1.13000000
   O     54.77000000    41.79000000     1.35000000
   H     55.22000000    42.24000000     0.64000000
   H     54.72000000    42.44000000     2.05000000

Ca 1.70



