%chk=loop2.cluster9.chk
%nprocshared=48
%mem=10GB
%nosave
#b3lyp/svp scf=(tight,noincore) Test 
#IOP(5/87=12) Density=Current Pop=(MK,readradii) iop(6/33=2) iop(6/42=6)

loop2.cluster9 

   -2  1 
   C     51.45000000    43.96000000    16.30000000
   C     52.70000000    43.61000000    15.50000000
   O     53.77000000    44.20000000    15.64000000
   H     50.61600000    43.34900000    15.95500000
   H     51.62900000    43.76600000    17.35800000
   H     51.21100000    45.01400000    16.15900000
   N     52.64000000    42.59000000    14.63000000
   C     53.77000000    42.10000000    13.88000000
   C     53.84000000    42.87000000    12.56000000
   O     53.04000000    42.68000000    11.65000000
   C     53.67000000    40.58000000    13.76000000
   C     54.95000000    39.97000000    13.22000000
   O     55.89000000    40.74000000    12.94000000
   O     55.04000000    38.72000000    13.19000000
   H     51.70000000    42.34000000    14.37000000
   H     54.64000000    42.22000000    14.53000000
   H     52.84000000    40.27000000    13.12000000
   H     53.44000000    40.21000000    14.76000000
   N     54.91000000    43.66000000    12.48000000
   C     55.33000000    44.42000000    11.32000000
   C     55.92000000    43.51000000    10.24000000
   O     55.56000000    43.60000000     9.08000000
   C     56.30000000    45.52000000    11.72000000
   H     55.63000000    43.66000000    13.19000000
   H     54.41000000    44.80000000    10.87000000
   H     56.62000000    46.21000000    10.93000000
   H     55.82000000    46.10000000    12.50000000
   H     57.22000000    45.14000000    12.18000000
   N     56.75000000    42.54000000    10.64000000
   C     57.31000000    41.61000000     9.68000000
   C     56.26000000    40.60000000     9.26000000
   O     56.31000000    40.16000000     8.12000000
   C     58.48000000    40.86000000    10.31000000
   C     59.48000000    41.73000000    11.07000000
   O     59.63000000    41.60000000    12.31000000
   O     60.11000000    42.59000000    10.42000000
   H     56.84000000    42.36000000    11.63000000
   H     57.62000000    42.19000000     8.81000000
   H     59.02000000    40.34000000     9.51000000
   H     58.07000000    40.12000000    10.98000000
   N     55.38000000    40.14000000    10.16000000
   C     54.55000000    38.96000000     9.99000000
   C     55.40000000    37.70000000    10.05000000
   O     55.23000000    36.87000000     9.15000000
   H     55.39000000    40.53000000    11.10000000
   H     53.97000000    38.94000000     9.07000000
   H     53.85000000    38.94000000    10.83000000
   N     56.31000000    37.54000000    11.01000000
   C     57.14000000    36.37000000    11.18000000
   C     56.81000000    35.47000000    12.36000000
   O     57.22000000    34.31000000    12.33000000
   C     58.58000000    36.85000000    11.38000000
   C     58.77000000    37.40000000    12.79000000
   N     59.36000000    36.58000000    13.66000000
   O     58.35000000    38.52000000    13.05000000
   H     56.39000000    38.28000000    11.70000000
   H     57.12000000    35.78000000    10.26000000
   H     58.93000000    37.64000000    10.72000000
   H     59.29000000    36.04000000    11.24000000
   H     59.67000000    35.69000000    13.30000000
   H     59.30000000    36.79000000    14.65000000
   N     56.06000000    36.00000000    13.32000000
   C     55.29000000    35.36000000    14.36000000
   C     55.73000000    35.67000000    15.79000000
   O     55.37000000    34.93000000    16.70000000
   H     55.78000000    36.96000000    13.16000000
   H     55.31000000    34.28000000    14.24000000
   H     54.24000000    35.62000000    14.23000000
   N     56.57000000    36.69000000    16.00000000
   C     57.02000000    37.06000000    17.33000000
   C     57.22000000    38.56000000    17.40000000
   O     57.51000000    39.17000000    16.37000000
   C     58.36000000    36.41000000    17.70000000
   C     58.38000000    34.90000000    17.92000000
   O     59.30000000    36.70000000    16.70000000
   H     56.76000000    37.35000000    15.26000000
   H     56.23000000    36.65000000    17.95000000
   H     58.73000000    36.93000000    18.59000000
   H     60.11000000    36.20000000    16.81000000
   H     57.60000000    34.75000000    18.67000000
   H     58.09000000    34.47000000    16.97000000
   H     59.37000000    34.56000000    18.22000000
   N     57.17000000    39.14000000    18.60000000
   C     57.49000000    40.52000000    18.90000000
   C     59.00000000    40.64000000    19.07000000
   O     59.60000000    39.73000000    19.64000000
   C     56.81000000    41.17000000    20.10000000
   C     55.56000000    40.41000000    20.52000000
   C     56.50000000    42.63000000    19.77000000
   C     54.66000000    40.98000000    21.61000000
   H     57.15000000    38.46000000    19.35000000
   H     57.27000000    41.02000000    17.95000000
   H     57.53000000    41.17000000    20.91000000
   H     55.89000000    39.45000000    20.93000000
   H     54.93000000    40.25000000    19.64000000
   H     57.37000000    43.28000000    19.63000000
   H     55.86000000    42.70000000    18.90000000
   H     55.97000000    43.17000000    20.56000000
   H     54.39000000    42.03000000    21.47000000
   H     53.84000000    40.30000000    21.84000000
   H     55.30000000    40.98000000    22.50000000
   N     59.57000000    41.78000000    18.67000000
   C     60.91000000    42.25000000    18.96000000
   C     60.96000000    43.68000000    19.48000000
   O     59.98000000    44.41000000    19.31000000
   C     61.64000000    42.14000000    17.63000000
   C     61.06000000    42.77000000    16.37000000
   O     61.39000000    43.93000000    16.05000000
   O     60.12000000    42.19000000    15.78000000
   H     58.98000000    42.39000000    18.13000000
   H     61.40000000    41.67000000    19.74000000
   H     61.73000000    41.07000000    17.43000000
   H     62.61000000    42.60000000    17.80000000
   N     62.05000000    44.19000000    20.06000000
   C     62.06000000    45.41000000    20.83000000
   C     61.89000000    46.69000000    20.01000000
   O     61.24000000    47.63000000    20.45000000
   C     63.33000000    45.52000000    21.66000000
   C     63.23000000    46.66000000    22.65000000
   C     64.01000000    47.82000000    22.53000000
   C     62.40000000    46.49000000    23.76000000
   C     63.96000000    48.77000000    23.55000000
   C     62.33000000    47.49000000    24.74000000
   C     63.13000000    48.63000000    24.67000000
   H     62.86000000    43.59000000    20.15000000
   H     61.23000000    45.39000000    21.53000000
   H     64.19000000    45.62000000    21.00000000
   H     63.42000000    44.58000000    22.20000000
   H     64.61000000    47.95000000    21.64000000
   H     61.94000000    45.53000000    23.94000000
   H     64.62000000    49.62000000    23.41000000
   H     61.55000000    47.37000000    25.48000000
   H     63.10000000    49.36000000    25.47000000
   N     62.41000000    46.78000000    18.79000000
   C     62.08000000    47.83000000    17.85000000
   C     60.67000000    47.83000000    17.27000000
   O     60.10000000    48.91000000    17.11000000
   C     63.16000000    47.89000000    16.77000000
   C     64.26000000    46.99000000    17.32000000
   C     63.53000000    46.03000000    18.26000000
   H     62.13000000    48.80000000    18.35000000
   H     62.75000000    47.45000000    15.85000000
   H     63.61000000    48.85000000    16.53000000
   H     64.81000000    46.43000000    16.56000000
   H     64.86000000    47.59000000    18.01000000
   H     63.19000000    45.24000000    17.59000000
   H     64.17000000    45.45000000    18.93000000
   N     60.00000000    46.70000000    17.04000000
   C     58.61000000    46.61000000    16.64000000
   C     57.69000000    47.00000000    17.78000000
   O     56.55000000    47.43000000    17.60000000
   C     58.35000000    45.17000000    16.21000000
   C     56.90000000    44.72000000    16.01000000
   C     56.94000000    43.33000000    15.41000000
   O     57.40000000    43.19000000    14.26000000
   O     56.80000000    42.33000000    16.15000000
   H     60.61000000    45.90000000    16.95000000
   H     58.51000000    47.24000000    15.75000000
   H     58.68000000    44.47000000    16.98000000
   H     58.93000000    44.98000000    15.31000000
   H     56.35000000    45.47000000    15.44000000
   H     56.42000000    44.64000000    16.98000000
   N     58.11000000    46.74000000    19.02000000
   C     57.43000000    47.16000000    20.23000000
   H     56.42600000    46.73500000    20.24800000
   H     57.98700000    46.81200000    21.10000000
   H     57.36400000    48.24800000    20.25200000
   H     59.00000000    46.27000000    19.12000000
  Ca     58.36000000    40.80000000    14.49000000
   O     60.22000000    39.24000000    15.66000000
   H     60.89000000    38.66000000    15.31000000
   H     60.14000000    38.99000000    16.58000000

Ca 1.70



