%chk=loop4.cluster84.chk
%nprocshared=48
%mem=10GB
%nosave
#b3lyp/svp scf=(tight,noincore) Test 
#IOP(5/87=12) Density=Current Pop=(MK,readradii) iop(6/33=2) iop(6/42=6)

loop4.cluster84 

   -3  1 
   C     44.40000000    47.63000000    49.34000000
   C     44.75000000    46.93000000    50.65000000
   O     45.77000000    46.26000000    50.68000000
   H     43.56600000    48.31300000    49.50500000
   H     45.26400000    48.19200000    48.98500000
   H     44.11800000    46.88700000    48.59400000
   N     44.02000000    47.08000000    51.77000000
   C     44.39000000    46.53000000    53.05000000
   C     45.75000000    46.86000000    53.65000000
   O     46.33000000    46.05000000    54.37000000
   C     43.99000000    45.06000000    53.11000000
   C     44.55000000    44.08000000    52.08000000
   O     43.80000000    43.61000000    51.20000000
   O     45.64000000    43.51000000    52.32000000
   H     43.32000000    47.79000000    51.64000000
   H     43.65000000    47.04000000    53.66000000
   H     42.90000000    45.03000000    53.04000000
   H     44.23000000    44.60000000    54.07000000
   N     46.30000000    48.06000000    53.43000000
   C     47.57000000    48.52000000    53.95000000
   C     47.43000000    48.84000000    55.43000000
   O     48.50000000    48.92000000    56.04000000
   C     48.82000000    47.85000000    53.39000000
   C     49.98000000    48.83000000    53.24000000
   C     48.60000000    47.12000000    52.08000000
   C     51.39000000    48.24000000    53.16000000
   H     45.84000000    48.70000000    52.79000000
   H     47.67000000    49.55000000    53.60000000
   H     49.01000000    47.10000000    54.16000000
   H     49.95000000    49.53000000    54.08000000
   H     49.87000000    49.46000000    52.36000000
   H     48.23000000    47.69000000    51.22000000
   H     49.48000000    46.54000000    51.82000000
   H     47.99000000    46.22000000    52.18000000
   H     52.14000000    49.00000000    53.35000000
   H     51.52000000    47.45000000    53.90000000
   H     51.59000000    47.89000000    52.15000000
   N     46.25000000    49.11000000    56.00000000
   C     46.08000000    49.81000000    57.25000000
   C     44.95000000    49.13000000    58.01000000
   O     43.76000000    49.45000000    57.97000000
   C     45.76000000    51.27000000    56.93000000
   C     44.76000000    51.57000000    55.82000000
   O     44.41000000    52.75000000    55.59000000
   O     44.31000000    50.65000000    55.10000000
   H     45.49000000    49.12000000    55.33000000
   H     47.01000000    49.83000000    57.82000000
   H     46.66000000    51.72000000    56.52000000
   H     45.40000000    51.83000000    57.79000000
   N     45.24000000    48.07000000    58.76000000
   C     46.43000000    47.24000000    58.71000000
   C     46.38000000    46.21000000    57.59000000
   O     45.28000000    45.89000000    57.17000000
   H     44.44000000    47.57000000    59.12000000
   H     46.68000000    46.67000000    59.60000000
   H     47.33000000    47.84000000    58.60000000
   N     47.50000000    45.70000000    57.06000000
   C     48.83000000    46.03000000    57.54000000
   C     49.84000000    45.83000000    56.42000000
   O     49.80000000    44.85000000    55.68000000
   C     49.14000000    45.07000000    58.68000000
   C     50.42000000    45.39000000    59.44000000
   O     50.34000000    46.47000000    60.07000000
   O     51.45000000    44.68000000    59.34000000
   H     47.40000000    45.18000000    56.21000000
   H     48.89000000    47.09000000    57.80000000
   H     49.20000000    44.08000000    58.22000000
   H     48.34000000    44.99000000    59.42000000
   N     50.99000000    46.52000000    56.40000000
   C     51.31000000    47.67000000    57.22000000
   C     52.81000000    47.83000000    57.44000000
   O     53.39000000    48.90000000    57.32000000
   H     51.63000000    46.33000000    55.65000000
   H     50.85000000    47.57000000    58.20000000
   H     50.93000000    48.56000000    56.72000000
   N     53.46000000    46.69000000    57.67000000
   C     54.87000000    46.59000000    58.00000000
   C     55.85000000    46.82000000    56.87000000
   O     57.03000000    46.73000000    57.22000000
   C     55.20000000    45.27000000    58.69000000
   C     55.10000000    43.99000000    57.87000000
   C     55.71000000    42.84000000    58.66000000
   N     55.14000000    41.66000000    58.41000000
   O     56.64000000    42.93000000    59.46000000
   H     52.89000000    45.87000000    57.84000000
   H     55.07000000    47.41000000    58.69000000
   H     54.52000000    45.15000000    59.53000000
   H     56.18000000    45.32000000    59.17000000
   H     55.67000000    44.04000000    56.94000000
   H     54.04000000    43.76000000    57.74000000
   H     54.33000000    41.66000000    57.79000000
   H     55.54000000    40.80000000    58.74000000
   N     55.46000000    46.98000000    55.61000000
   C     56.35000000    47.00000000    54.47000000
   C     56.77000000    45.59000000    54.09000000
   O     55.93000000    44.69000000    53.93000000
   C     55.83000000    47.86000000    53.32000000
   C     56.67000000    47.88000000    52.05000000
   C     55.60000000    49.26000000    53.89000000
   H     54.48000000    46.81000000    55.41000000
   H     57.23000000    47.50000000    54.89000000
   H     54.85000000    47.48000000    53.06000000
   H     56.32000000    48.65000000    51.36000000
   H     57.68000000    48.18000000    52.33000000
   H     56.59000000    46.92000000    51.54000000
   H     54.81000000    49.30000000    54.64000000
   H     56.49000000    49.68000000    54.36000000
   H     55.16000000    49.75000000    53.02000000
   N     58.09000000    45.41000000    54.01000000
   C     58.76000000    44.21000000    53.57000000
   C     58.40000000    43.83000000    52.14000000
   O     58.61000000    44.64000000    51.24000000
   C     58.78000000    43.16000000    54.68000000
   C     59.42000000    43.57000000    56.00000000
   N     59.37000000    42.72000000    57.02000000
   O     59.96000000    44.66000000    56.19000000
   H     58.62000000    46.16000000    54.42000000
   H     59.82000000    44.45000000    53.49000000
   H     59.29000000    42.25000000    54.36000000
   H     57.76000000    42.82000000    54.87000000
   H     59.11000000    41.76000000    56.85000000
   H     59.68000000    43.01000000    57.94000000
   N     57.98000000    42.57000000    51.96000000
   C     57.53000000    42.05000000    50.68000000
   C     56.04000000    42.10000000    50.40000000
   O     55.18000000    42.15000000    51.28000000
   C     58.01000000    40.62000000    50.50000000
   C     59.51000000    40.52000000    50.70000000
   C     60.00000000    39.84000000    51.82000000
   C     60.37000000    41.16000000    49.80000000
   C     61.37000000    39.84000000    52.07000000
   C     61.75000000    41.16000000    50.05000000
   C     62.25000000    40.55000000    51.22000000
   O     63.58000000    40.68000000    51.49000000
   H     57.90000000    41.91000000    52.72000000
   H     58.05000000    42.53000000    49.85000000
   H     57.83000000    40.27000000    49.48000000
   H     57.53000000    39.99000000    51.25000000
   H     59.25000000    39.45000000    52.50000000
   H     59.97000000    41.72000000    48.97000000
   H     61.78000000    39.60000000    53.03000000
   H     62.47000000    41.63000000    49.40000000
   H     64.03000000    41.20000000    50.82000000
   N     55.72000000    41.83000000    49.13000000
   C     54.46000000    41.43000000    48.55000000
   C     53.40000000    42.51000000    48.71000000
   O     52.23000000    42.27000000    48.43000000
   C     54.07000000    40.03000000    49.01000000
   C     54.86000000    38.90000000    48.34000000
   C     54.77000000    38.91000000    46.82000000
   O     55.78000000    38.73000000    46.11000000
   O     53.73000000    39.23000000    46.19000000
   H     56.49000000    41.74000000    48.48000000
   H     54.62000000    41.31000000    47.48000000
   H     53.07000000    39.81000000    48.65000000
   H     54.15000000    39.92000000    50.09000000
   H     54.44000000    37.99000000    48.75000000
   H     55.90000000    38.96000000    48.65000000
   N     53.72000000    43.75000000    49.09000000
   C     52.85000000    44.90000000    49.12000000
   C     53.26000000    45.94000000    48.09000000
   O     52.40000000    46.50000000    47.42000000
   C     52.80000000    45.46000000    50.54000000
   C     52.37000000    44.49000000    51.64000000
   C     50.98000000    43.89000000    51.47000000
   O     50.67000000    42.94000000    52.22000000
   O     50.01000000    44.38000000    50.87000000
   H     54.67000000    43.90000000    49.40000000
   H     51.83000000    44.58000000    48.89000000
   H     52.14000000    46.33000000    50.54000000
   H     53.80000000    45.78000000    50.82000000
   H     52.41000000    45.00000000    52.59000000
   H     53.11000000    43.69000000    51.77000000
   N     54.58000000    46.06000000    47.93000000
   C     55.36000000    46.93000000    47.08000000
   H     56.33800000    46.48200000    46.90200000
   H     54.84500000    47.06700000    46.12900000
   H     55.48700000    47.89700000    47.56700000
   H     55.10000000    45.36000000    48.46000000
  Ca     48.12000000    42.70000000    51.61000000
   O     47.80000000    41.10000000    53.83000000
   H     47.53000000    40.21000000    54.02000000
   H     48.24000000    41.39000000    54.63000000
   O     46.85000000    43.95000000    49.68000000
   H     46.20000000    43.64000000    49.05000000
   H     46.52000000    44.80000000    49.96000000
   O     48.18000000    44.03000000    53.74000000
   H     48.90000000    44.38000000    54.27000000
   H     47.44000000    44.60000000    53.94000000
   O     46.53000000    40.75000000    50.77000000
   H     46.57000000    39.83000000    51.04000000
   H     45.72000000    40.81000000    50.26000000
   O     49.46000000    41.99000000    49.30000000
   H     48.87000000    41.84000000    48.57000000
   H     50.28000000    42.26000000    48.89000000
   O     49.15000000    39.99000000    51.54000000
   H     48.60000000    39.25000000    51.27000000
   H     49.36000000    40.44000000    50.72000000

Ca 1.70



