%chk=loop2.cluster90.chk
%nprocshared=48
%mem=10GB
%nosave
#b3lyp/svp scf=(tight,noincore) Test 
#IOP(5/87=12) Density=Current Pop=(MK,readradii) iop(6/33=2) iop(6/42=6)

loop2.cluster90 

   -2  1 
   C     61.10000000    49.69000000    51.46000000
   C     60.52000000    49.79000000    50.06000000
   O     60.02000000    48.78000000    49.57000000
   H     61.98700000    50.31900000    51.53100000
   H     60.35900000    50.02500000    52.18600000
   H     61.37100000    48.65500000    51.66800000
   N     60.58000000    51.01000000    49.50000000
   C     60.16000000    51.44000000    48.19000000
   C     58.69000000    51.20000000    47.88000000
   O     57.86000000    51.33000000    48.78000000
   C     60.56000000    52.87000000    47.83000000
   C     62.03000000    53.11000000    48.15000000
   O     62.79000000    52.76000000    47.22000000
   O     62.50000000    53.54000000    49.23000000
   H     61.08000000    51.71000000    50.04000000
   H     60.59000000    50.68000000    47.53000000
   H     59.91000000    53.53000000    48.40000000
   H     60.49000000    53.05000000    46.76000000
   N     58.42000000    50.74000000    46.66000000
   C     57.13000000    50.15000000    46.36000000
   C     57.20000000    48.63000000    46.35000000
   O     58.25000000    48.00000000    46.47000000
   C     56.86000000    50.83000000    45.02000000
   H     59.17000000    50.49000000    46.03000000
   H     56.34000000    50.53000000    47.02000000
   H     55.79000000    50.76000000    44.81000000
   H     57.12000000    51.87000000    45.22000000
   H     57.37000000    50.29000000    44.23000000
   N     56.11000000    47.86000000    46.43000000
   C     54.76000000    48.23000000    46.06000000
   C     54.10000000    49.15000000    47.07000000
   O     54.48000000    49.17000000    48.24000000
   C     53.95000000    46.99000000    45.68000000
   C     54.04000000    45.94000000    46.78000000
   O     53.33000000    46.11000000    47.79000000
   O     54.83000000    44.98000000    46.62000000
   H     56.21000000    46.86000000    46.53000000
   H     54.85000000    48.82000000    45.15000000
   H     54.37000000    46.76000000    44.71000000
   H     52.93000000    47.34000000    45.49000000
   N     53.06000000    49.94000000    46.76000000
   C     52.63000000    51.10000000    47.50000000
   C     53.58000000    52.29000000    47.64000000
   O     54.40000000    52.59000000    46.78000000
   H     52.58000000    49.71000000    45.90000000
   H     52.24000000    50.81000000    48.47000000
   H     51.75000000    51.45000000    46.96000000
   N     53.71000000    53.01000000    48.76000000
   C     52.93000000    52.84000000    49.96000000
   C     53.73000000    53.18000000    51.21000000
   O     53.29000000    53.87000000    52.13000000
   C     51.72000000    53.75000000    49.75000000
   C     50.78000000    53.40000000    48.61000000
   N     49.92000000    52.43000000    48.92000000
   O     50.88000000    53.93000000    47.50000000
   H     54.25000000    53.86000000    48.67000000
   H     52.62000000    51.80000000    50.10000000
   H     52.05000000    54.77000000    49.57000000
   H     51.14000000    53.59000000    50.67000000
   H     49.85000000    52.10000000    49.88000000
   H     49.14000000    52.26000000    48.31000000
   N     54.99000000    52.73000000    51.25000000
   C     55.99000000    53.10000000    52.23000000
   C     56.10000000    52.22000000    53.47000000
   O     56.85000000    52.65000000    54.34000000
   H     55.29000000    52.27000000    50.41000000
   H     55.89000000    54.12000000    52.60000000
   H     56.93000000    53.18000000    51.68000000
   N     55.46000000    51.05000000    53.47000000
   C     55.46000000    50.11000000    54.57000000
   C     55.53000000    48.68000000    54.07000000
   O     55.09000000    48.28000000    53.00000000
   C     54.26000000    50.28000000    55.50000000
   C     54.34000000    51.45000000    56.48000000
   O     53.05000000    50.26000000    54.77000000
   H     54.98000000    50.75000000    52.63000000
   H     56.33000000    50.30000000    55.20000000
   H     54.27000000    49.31000000    55.99000000
   H     52.77000000    49.36000000    54.95000000
   H     55.04000000    50.99000000    57.17000000
   H     54.61000000    52.42000000    56.07000000
   H     53.34000000    51.52000000    56.91000000
   N     56.01000000    47.77000000    54.93000000
   C     55.95000000    46.34000000    54.74000000
   C     54.81000000    45.61000000    55.43000000
   O     54.40000000    45.95000000    56.54000000
   C     57.30000000    45.72000000    55.09000000
   C     58.50000000    46.35000000    54.38000000
   C     57.61000000    45.80000000    56.59000000
   C     58.35000000    46.33000000    52.86000000
   H     56.35000000    48.09000000    55.82000000
   H     55.76000000    46.10000000    53.70000000
   H     57.20000000    44.66000000    54.87000000
   H     59.30000000    45.64000000    54.57000000
   H     58.67000000    47.35000000    54.77000000
   H     58.64000000    45.51000000    56.80000000
   H     57.54000000    46.83000000    56.92000000
   H     57.04000000    45.10000000    57.21000000
   H     58.20000000    45.30000000    52.55000000
   H     57.46000000    46.85000000    52.51000000
   H     59.20000000    46.87000000    52.45000000
   N     54.38000000    44.49000000    54.84000000
   C     53.28000000    43.67000000    55.30000000
   C     53.74000000    42.23000000    55.13000000
   O     54.55000000    41.79000000    54.32000000
   C     52.02000000    44.03000000    54.51000000
   C     52.36000000    44.15000000    53.03000000
   O     52.65000000    45.30000000    52.63000000
   O     52.30000000    43.20000000    52.22000000
   H     54.77000000    44.28000000    53.93000000
   H     53.15000000    43.89000000    56.36000000
   H     51.61000000    44.98000000    54.85000000
   H     51.25000000    43.28000000    54.63000000
   N     53.36000000    41.41000000    56.12000000
   C     53.66000000    39.99000000    56.10000000
   C     55.16000000    39.73000000    56.00000000
   O     55.97000000    40.34000000    56.69000000
   C     53.17000000    39.36000000    57.41000000
   C     53.47000000    37.89000000    57.55000000
   C     54.65000000    37.58000000    58.23000000
   C     52.63000000    36.94000000    56.96000000
   C     54.98000000    36.22000000    58.39000000
   C     52.95000000    35.60000000    57.21000000
   C     54.14000000    35.24000000    57.85000000
   H     52.84000000    41.81000000    56.89000000
   H     53.11000000    39.58000000    55.26000000
   H     52.09000000    39.44000000    57.35000000
   H     53.59000000    39.84000000    58.30000000
   H     55.27000000    38.36000000    58.63000000
   H     51.75000000    37.18000000    56.39000000
   H     55.83000000    35.98000000    59.01000000
   H     52.32000000    34.79000000    56.87000000
   H     54.43000000    34.20000000    57.92000000
   N     55.56000000    38.75000000    55.20000000
   C     56.96000000    38.39000000    55.04000000
   C     57.82000000    39.43000000    54.35000000
   O     58.96000000    39.11000000    54.02000000
   C     56.97000000    36.97000000    54.47000000
   C     55.50000000    36.57000000    54.28000000
   C     54.76000000    37.90000000    54.34000000
   H     57.29000000    38.22000000    56.07000000
   H     57.45000000    36.85000000    53.50000000
   H     57.50000000    36.29000000    55.12000000
   H     55.25000000    35.88000000    53.48000000
   H     55.33000000    36.01000000    55.20000000
   H     54.74000000    38.34000000    53.34000000
   H     53.76000000    37.71000000    54.73000000
   N     57.41000000    40.64000000    53.96000000
   C     58.18000000    41.62000000    53.22000000
   C     59.18000000    42.35000000    54.10000000
   O     59.94000000    43.20000000    53.64000000
   C     57.27000000    42.52000000    52.39000000
   C     56.53000000    41.63000000    51.39000000
   C     55.81000000    42.31000000    50.24000000
   O     55.11000000    43.34000000    50.38000000
   O     56.03000000    42.02000000    49.04000000
   H     56.48000000    40.93000000    54.24000000
   H     58.82000000    41.08000000    52.52000000
   H     57.92000000    43.22000000    51.87000000
   H     56.55000000    43.15000000    52.91000000
   H     55.84000000    40.92000000    51.84000000
   H     57.28000000    40.94000000    50.99000000
   N     59.25000000    42.03000000    55.39000000
   C     60.07000000    42.73000000    56.36000000
   H     60.96900000    43.10600000    55.87100000
   H     59.50700000    43.56500000    56.77700000
   H     60.35200000    42.04500000    57.16000000
   H     58.50000000    41.49000000    55.81000000
  Ca     53.22000000    44.97000000    50.14000000
   O     52.56000000    47.57000000    50.05000000
   H     53.36000000    47.87000000    49.61000000
   H     52.20000000    48.35000000    50.46000000
   O     52.73000000    42.78000000    48.51000000
   H     52.14000000    42.28000000    49.08000000
   H     53.46000000    42.19000000    48.33000000
   O     55.16000000    46.63000000    50.70000000
   H     56.09000000    46.54000000    50.50000000
   H     55.09000000    47.43000000    51.20000000

Ca 1.70



