%chk=loop3.cluster56.chk
%nprocshared=48
%mem=10GB
%nosave
#b3lyp/svp scf=(tight,noincore) Test 
#IOP(5/87=12) Density=Current Pop=(MK,readradii) iop(6/33=2) iop(6/42=6)

loop3.cluster56 

   0  1 
   C     79.73000000    72.36000000    20.75000000
   C     80.65000000    71.21000000    20.36000000
   O     80.47000000    70.09000000    20.83000000
   H     78.78700000    71.96000000    21.12300000
   H     80.20400000    72.95700000    21.52900000
   H     79.53900000    72.98500000    19.87800000
   N     81.72000000    71.49000000    19.62000000
   C     82.69000000    70.43000000    19.44000000
   C     83.51000000    70.22000000    20.71000000
   O     83.57000000    71.12000000    21.54000000
   C     83.62000000    70.93000000    18.34000000
   C     84.24000000    72.31000000    18.55000000
   O     85.35000000    72.37000000    19.12000000
   O     83.78000000    73.27000000    17.90000000
   H     81.89000000    72.39000000    19.18000000
   H     82.13000000    69.58000000    19.07000000
   H     82.99000000    70.99000000    17.46000000
   H     84.39000000    70.18000000    18.16000000
   N     84.15000000    69.06000000    20.86000000
   C     85.06000000    68.71000000    21.93000000
   C     84.40000000    68.27000000    23.23000000
   O     85.02000000    68.40000000    24.28000000
   C     86.05000000    67.64000000    21.45000000
   C     87.16000000    67.22000000    22.41000000
   C     88.09000000    66.19000000    21.78000000
   C     89.07000000    65.74000000    22.86000000
   N     90.09000000    64.78000000    22.39000000
   H     83.96000000    68.38000000    20.13000000
   H     85.67000000    69.60000000    22.06000000
   H     86.66000000    68.15000000    20.70000000
   H     85.66000000    66.76000000    20.95000000
   H     86.74000000    66.69000000    23.26000000
   H     87.68000000    68.15000000    22.62000000
   H     88.63000000    66.78000000    21.04000000
   H     87.53000000    65.39000000    21.30000000
   H     88.52000000    65.30000000    23.69000000
   H     89.54000000    66.60000000    23.35000000
   H     90.91000000    64.86000000    22.96000000
   H     89.62000000    63.89000000    22.44000000
   H     90.35000000    64.89000000    21.42000000
   N     83.19000000    67.72000000    23.11000000
   C     82.43000000    67.11000000    24.18000000
   C     83.06000000    65.79000000    24.59000000
   O     82.47000000    64.72000000    24.48000000
   C     80.95000000    66.91000000    23.85000000
   C     80.64000000    66.23000000    22.52000000
   O     79.46000000    66.03000000    22.16000000
   O     81.57000000    65.88000000    21.78000000
   H     82.83000000    67.45000000    22.20000000
   H     82.49000000    67.70000000    25.09000000
   H     80.43000000    67.87000000    23.84000000
   H     80.40000000    66.41000000    24.64000000
   N     84.26000000    65.92000000    25.17000000
   C     85.09000000    64.77000000    25.47000000
   C     85.78000000    63.92000000    24.40000000
   O     85.55000000    64.13000000    23.21000000
   H     84.72000000    66.82000000    25.23000000
   H     84.61000000    64.11000000    26.19000000
   H     85.92000000    65.16000000    26.06000000
   N     86.56000000    62.92000000    24.82000000
   C     86.86000000    62.40000000    26.14000000
   C     86.11000000    61.13000000    26.49000000
   O     85.65000000    60.39000000    25.62000000
   C     88.36000000    62.19000000    26.32000000
   C     89.16000000    63.43000000    25.93000000
   N     90.37000000    63.28000000    25.41000000
   O     88.74000000    64.57000000    26.13000000
   H     86.89000000    62.35000000    24.06000000
   H     86.66000000    63.18000000    26.88000000
   H     88.72000000    61.37000000    25.70000000
   H     88.58000000    61.93000000    27.36000000
   H     90.82000000    62.38000000    25.43000000
   H     90.97000000    64.10000000    25.39000000
   N     85.98000000    60.72000000    27.76000000
   C     86.15000000    61.34000000    29.06000000
   C     85.26000000    62.53000000    29.37000000
   O     85.19000000    63.48000000    28.59000000
   H     85.67000000    59.76000000    27.72000000
   H     87.11000000    61.86000000    29.04000000
   H     86.16000000    60.52000000    29.78000000
   N     84.59000000    62.46000000    30.52000000
   C     83.44000000    63.27000000    30.84000000
   C     83.50000000    63.71000000    32.30000000
   O     82.89000000    63.10000000    33.18000000
   C     82.17000000    62.48000000    30.53000000
   C     82.22000000    61.72000000    29.22000000
   C     82.17000000    62.52000000    28.08000000
   C     82.25000000    60.33000000    29.14000000
   C     82.37000000    61.92000000    26.83000000
   C     82.23000000    59.73000000    27.88000000
   C     82.29000000    60.52000000    26.71000000
   O     82.25000000    60.05000000    25.44000000
   H     84.71000000    61.67000000    31.14000000
   H     83.34000000    64.16000000    30.21000000
   H     81.31000000    63.14000000    30.63000000
   H     82.01000000    61.70000000    31.29000000
   H     82.15000000    63.60000000    28.10000000
   H     82.22000000    59.67000000    30.00000000
   H     82.42000000    62.53000000    25.93000000
   H     82.15000000    58.65000000    27.85000000
   H     82.40000000    59.11000000    25.50000000
   N     84.25000000    64.77000000    32.58000000
   C     84.76000000    65.19000000    33.87000000
   C     84.58000000    66.63000000    34.33000000
   O     84.64000000    66.87000000    35.53000000
   C     86.25000000    64.86000000    33.82000000
   C     86.43000000    63.35000000    33.93000000
   C     86.96000000    65.52000000    32.64000000
   C     87.69000000    62.93000000    34.67000000
   H     84.64000000    65.23000000    31.77000000
   H     84.32000000    64.57000000    34.66000000
   H     86.70000000    65.28000000    34.72000000
   H     86.42000000    62.89000000    32.94000000
   H     85.58000000    63.00000000    34.53000000
   H     86.78000000    66.60000000    32.63000000
   H     88.02000000    65.37000000    32.87000000
   H     86.65000000    65.01000000    31.73000000
   H     87.65000000    61.85000000    34.75000000
   H     88.58000000    63.21000000    34.10000000
   H     87.73000000    63.21000000    35.73000000
   N     84.27000000    67.61000000    33.47000000
   C     84.11000000    69.01000000    33.78000000
   C     84.75000000    69.89000000    32.72000000
   O     84.96000000    71.08000000    32.97000000
   C     82.61000000    69.24000000    33.95000000
   O     81.95000000    69.49000000    32.73000000
   H     83.89000000    67.30000000    32.58000000
   H     84.58000000    69.24000000    34.74000000
   H     82.47000000    70.10000000    34.61000000
   H     82.09000000    68.44000000    34.46000000
   H     82.33000000    68.85000000    32.12000000
   N     85.09000000    69.38000000    31.54000000
   C     85.63000000    70.07000000    30.39000000
   C     84.54000000    70.65000000    29.50000000
   O     84.75000000    70.71000000    28.29000000
   C     86.53000000    69.10000000    29.63000000
   H     84.67000000    68.47000000    31.37000000
   H     86.23000000    70.92000000    30.73000000
   H     86.99000000    69.67000000    28.83000000
   H     87.27000000    68.70000000    30.32000000
   H     85.93000000    68.31000000    29.17000000
   N     83.47000000    71.17000000    30.13000000
   C     82.28000000    71.78000000    29.57000000
   C     81.71000000    70.79000000    28.56000000
   O     81.57000000    71.12000000    27.38000000
   C     82.53000000    73.21000000    29.10000000
   H     83.54000000    71.09000000    31.13000000
   H     81.63000000    71.79000000    30.44000000
   H     82.95000000    73.04000000    28.11000000
   H     81.59000000    73.75000000    28.98000000
   H     83.25000000    73.66000000    29.78000000
   N     81.54000000    69.54000000    28.98000000
   C     80.99000000    68.40000000    28.28000000
   C     79.77000000    67.80000000    28.96000000
   O     78.81000000    67.39000000    28.32000000
   C     82.05000000    67.42000000    27.77000000
   C     82.79000000    66.49000000    28.74000000
   C     83.32000000    67.12000000    30.02000000
   O     82.60000000    67.81000000    30.78000000
   O     84.40000000    66.62000000    30.40000000
   H     81.76000000    69.38000000    29.96000000
   H     80.52000000    68.76000000    27.37000000
   H     82.80000000    68.11000000    27.39000000
   H     81.61000000    66.86000000    26.96000000
   H     83.61000000    66.05000000    28.19000000
   H     82.06000000    65.75000000    29.07000000
   N     79.77000000    67.65000000    30.29000000
   C     78.67000000    67.27000000    31.15000000
   H     77.78800000    67.06700000    30.54300000
   H     78.93900000    66.37500000    31.71100000
   H     78.45300000    68.08200000    31.84400000
   H     80.62000000    67.86000000    30.81000000
  Ca     79.18000000    64.15000000    19.08000000
   O     80.91000000    66.38000000    19.31000000
   H     81.14000000    66.43000000    20.23000000
   H     81.65000000    66.78000000    18.85000000
   O     79.22000000    61.80000000    17.83000000
   H     78.64000000    62.00000000    17.10000000
   H     79.09000000    60.86000000    17.99000000
   O     81.89000000    63.27000000    18.95000000
   H     82.24000000    63.22000000    18.06000000
   H     82.60000000    63.65000000    19.47000000
   O     77.14000000    63.04000000    20.42000000
   H     77.10000000    63.32000000    21.33000000
   H     76.62000000    62.24000000    20.39000000
   O     80.38000000    63.16000000    21.47000000
   H     80.98000000    62.61000000    21.97000000
   H     80.67000000    64.06000000    21.64000000
   O     77.46000000    66.05000000    19.65000000
   H     76.89000000    66.12000000    20.42000000
   H     77.87000000    66.91000000    19.58000000
   O     80.46000000    64.58000000    16.90000000
   H     81.41000000    64.59000000    16.79000000
   H     80.14000000    64.08000000    16.14000000

Ca 1.70



