%chk=loop1.cluster60.chk
%nprocshared=48
%mem=10GB
%nosave
#b3lyp/svp scf=(tight,noincore) Test 
#IOP(5/87=12) Density=Current Pop=(MK,readradii) iop(6/33=2) iop(6/42=6)

loop1.cluster60 

   0  1 
   C     77.85000000    67.74000000    18.00000000
   C     78.78000000    68.81000000    17.46000000
   O     78.89000000    68.96000000    16.24000000
   H     76.90700000    67.77000000    17.45400000
   H     78.31100000    66.76000000    17.87400000
   H     77.66300000    67.92100000    19.05800000
   N     79.38000000    69.59000000    18.36000000
   C     80.39000000    70.56000000    17.98000000
   C     81.62000000    69.87000000    17.40000000
   O     82.28000000    69.01000000    17.99000000
   C     80.82000000    71.32000000    19.23000000
   C     81.95000000    72.33000000    19.08000000
   O     82.60000000    72.69000000    20.09000000
   O     82.30000000    72.66000000    17.93000000
   H     79.14000000    69.38000000    19.32000000
   H     79.92000000    71.20000000    17.24000000
   H     81.11000000    70.70000000    20.08000000
   H     79.92000000    71.85000000    19.53000000
   N     81.99000000    70.28000000    16.19000000
   C     83.10000000    69.77000000    15.41000000
   C     84.41000000    70.49000000    15.69000000
   O     85.40000000    70.12000000    15.06000000
   C     82.65000000    69.61000000    13.96000000
   C     81.61000000    68.54000000    13.64000000
   C     82.10000000    67.10000000    13.65000000
   C     81.38000000    66.22000000    12.62000000
   N     80.05000000    65.69000000    12.94000000
   H     81.34000000    70.91000000    15.74000000
   H     83.28000000    68.78000000    15.84000000
   H     83.45000000    69.33000000    13.27000000
   H     82.17000000    70.55000000    13.69000000
   H     81.10000000    68.80000000    12.72000000
   H     80.89000000    68.67000000    14.46000000
   H     82.11000000    66.67000000    14.65000000
   H     83.14000000    67.11000000    13.32000000
   H     81.98000000    65.36000000    12.34000000
   H     81.44000000    66.79000000    11.69000000
   H     80.01000000    65.03000000    13.70000000
   H     79.41000000    66.40000000    13.28000000
   H     79.56000000    65.38000000    12.11000000
   N     84.48000000    71.55000000    16.49000000
   C     85.63000000    72.41000000    16.72000000
   C     86.33000000    72.62000000    18.05000000
   O     87.54000000    72.86000000    18.03000000
   C     85.45000000    73.76000000    16.03000000
   C     84.71000000    73.67000000    14.70000000
   O     85.32000000    73.36000000    13.65000000
   O     83.53000000    74.09000000    14.68000000
   H     83.64000000    71.78000000    17.01000000
   H     86.39000000    71.88000000    16.15000000
   H     86.39000000    74.30000000    15.90000000
   H     84.95000000    74.41000000    16.75000000
   N     85.61000000    72.64000000    19.17000000
   C     86.08000000    72.90000000    20.51000000
   C     85.94000000    74.40000000    20.79000000
   O     86.53000000    74.87000000    21.76000000
   H     84.62000000    72.48000000    19.05000000
   H     87.09000000    72.50000000    20.62000000
   H     85.42000000    72.37000000    21.20000000
   N     85.10000000    75.12000000    20.05000000
   C     84.89000000    76.55000000    20.16000000
   C     83.71000000    76.86000000    21.07000000
   O     83.55000000    78.01000000    21.48000000
   C     84.70000000    77.12000000    18.75000000
   C     83.60000000    76.55000000    17.87000000
   O     82.88000000    75.62000000    18.29000000
   O     83.49000000    76.85000000    16.66000000
   H     84.54000000    74.68000000    19.34000000
   H     85.79000000    77.02000000    20.56000000
   H     85.67000000    76.97000000    18.28000000
   H     84.48000000    78.17000000    18.95000000
   N     82.81000000    75.94000000    21.40000000
   C     81.67000000    76.25000000    22.24000000
   C     80.37000000    76.64000000    21.55000000
   O     79.55000000    77.35000000    22.13000000
   H     82.80000000    74.97000000    21.11000000
   H     82.02000000    76.99000000    22.96000000
   H     81.38000000    75.39000000    22.84000000
   N     80.21000000    76.19000000    20.31000000
   C     79.12000000    76.37000000    19.38000000
   C     78.69000000    75.06000000    18.74000000
   O     79.56000000    74.33000000    18.26000000
   C     79.41000000    77.47000000    18.36000000
   C     79.92000000    78.80000000    18.92000000
   O     80.41000000    77.16000000    17.42000000
   H     80.92000000    75.73000000    19.76000000
   H     78.30000000    76.75000000    19.99000000
   H     78.44000000    77.69000000    17.91000000
   H     80.89000000    77.96000000    17.18000000
   H     79.26000000    79.15000000    19.71000000
   H     80.90000000    78.75000000    19.40000000
   H     79.95000000    79.47000000    18.06000000
   N     77.39000000    74.77000000    18.66000000
   C     76.84000000    73.96000000    17.59000000
   C     76.25000000    74.95000000    16.59000000
   O     75.27000000    75.61000000    16.94000000
   C     75.85000000    72.93000000    18.13000000
   C     76.16000000    72.22000000    19.45000000
   C     75.52000000    71.92000000    17.03000000
   C     75.00000000    71.48000000    20.09000000
   H     76.83000000    75.33000000    19.28000000
   H     77.67000000    73.42000000    17.15000000
   H     74.91000000    73.43000000    18.36000000
   H     76.43000000    72.97000000    20.19000000
   H     76.98000000    71.52000000    19.29000000
   H     75.00000000    72.38000000    16.19000000
   H     76.41000000    71.50000000    16.56000000
   H     74.91000000    71.10000000    17.38000000
   H     75.30000000    70.99000000    21.01000000
   H     74.09000000    72.04000000    20.32000000
   H     74.61000000    70.72000000    19.41000000
   N     76.93000000    75.07000000    15.45000000
   C     76.37000000    75.73000000    14.29000000
   C     75.20000000    74.93000000    13.74000000
   O     75.05000000    73.77000000    14.13000000
   C     77.36000000    76.11000000    13.19000000
   C     78.54000000    76.86000000    13.79000000
   O     77.89000000    74.89000000    12.71000000
   H     77.86000000    74.68000000    15.38000000
   H     75.94000000    76.66000000    14.67000000
   H     76.90000000    76.67000000    12.39000000
   H     78.52000000    74.67000000    13.41000000
   H     78.28000000    77.90000000    13.98000000
   H     78.79000000    76.55000000    14.81000000
   H     79.50000000    76.78000000    13.28000000
   N     74.44000000    75.42000000    12.76000000
   C     73.35000000    74.70000000    12.12000000
   C     73.75000000    73.63000000    11.12000000
   O     73.06000000    72.64000000    10.89000000
   C     72.44000000    75.69000000    11.40000000
   C     71.06000000    75.16000000    11.02000000
   O     72.21000000    76.77000000    12.28000000
   H     74.48000000    76.41000000    12.60000000
   H     72.80000000    74.15000000    12.89000000
   H     73.00000000    76.02000000    10.52000000
   H     71.66000000    77.46000000    11.90000000
   H     70.45000000    76.04000000    10.85000000
   H     71.11000000    74.58000000    10.10000000
   H     70.64000000    74.66000000    11.89000000
   N     74.98000000    73.77000000    10.60000000
   C     75.77000000    72.75000000     9.96000000
   C     76.05000000    71.50000000    10.78000000
   O     75.75000000    70.35000000    10.45000000
   C     77.02000000    73.52000000     9.54000000
   C     78.04000000    72.61000000     8.86000000
   C     77.51000000    71.85000000     7.65000000
   C     78.73000000    71.24000000     6.96000000
   N     78.41000000    70.35000000     5.84000000
   H     75.41000000    74.68000000    10.66000000
   H     75.27000000    72.39000000     9.06000000
   H     77.56000000    74.05000000    10.33000000
   H     76.69000000    74.27000000     8.83000000
   H     78.48000000    71.96000000     9.61000000
   H     78.84000000    73.26000000     8.50000000
   H     77.13000000    72.59000000     6.94000000
   H     76.74000000    71.18000000     8.02000000
   H     79.24000000    70.64000000     7.71000000
   H     79.38000000    72.02000000     6.58000000
   H     77.73000000    69.63000000     6.06000000
   H     78.07000000    70.83000000     5.02000000
   H     79.26000000    69.94000000     5.48000000
   N     76.50000000    71.74000000    12.02000000
   C     76.98000000    70.68000000    12.87000000
   C     75.87000000    69.91000000    13.58000000
   O     75.97000000    68.71000000    13.86000000
   C     77.74000000    71.43000000    13.96000000
   C     79.07000000    72.00000000    13.45000000
   C     79.78000000    72.85000000    14.49000000
   O     79.41000000    74.02000000    14.75000000
   O     80.84000000    72.43000000    15.01000000
   H     76.64000000    72.71000000    12.27000000
   H     77.67000000    69.99000000    12.39000000
   H     78.00000000    70.72000000    14.74000000
   H     77.10000000    72.16000000    14.46000000
   H     78.99000000    72.63000000    12.57000000
   H     79.73000000    71.20000000    13.12000000
   N     74.70000000    70.53000000    13.68000000
   C     73.49000000    69.84000000    14.08000000
   H     72.68300000    70.09400000    13.39200000
   H     73.66100000    68.76400000    14.05800000
   H     73.21500000    70.14400000    15.09000000
   H     74.67000000    71.53000000    13.52000000
  Ca     81.70000000    74.59000000    16.34000000
   O     81.63000000    76.32000000    14.35000000
   H     81.80000000    77.20000000    14.02000000
   H     82.09000000    75.74000000    13.73000000

Ca 1.70



