%chk=loop3.cluster149.chk
%nprocshared=48
%mem=10GB
%nosave
#b3lyp/svp scf=(tight,noincore) Test 
#IOP(5/87=12) Density=Current Pop=(MK,readradii) iop(6/33=2) iop(6/42=6)

loop3.cluster149 

   0  1 
   C     53.53000000    54.60000000    46.90000000
   C     53.69000000    53.79000000    48.18000000
   O     52.68000000    53.61000000    48.85000000
   H     52.87000000    55.44700000    47.08700000
   H     54.50500000    54.96400000    46.57600000
   H     53.10000000    53.97000000    46.12200000
   N     54.92000000    53.42000000    48.54000000
   C     55.36000000    52.93000000    49.84000000
   C     55.15000000    53.70000000    51.13000000
   O     55.98000000    53.70000000    52.04000000
   C     55.02000000    51.47000000    50.08000000
   C     55.39000000    50.43000000    49.03000000
   O     54.67000000    50.37000000    48.01000000
   O     56.41000000    49.74000000    49.24000000
   H     55.71000000    53.69000000    47.97000000
   H     56.44000000    52.93000000    49.75000000
   H     53.95000000    51.43000000    50.29000000
   H     55.44000000    51.17000000    51.05000000
   N     53.97000000    54.31000000    51.26000000
   C     53.65000000    55.22000000    52.34000000
   C     53.24000000    54.58000000    53.66000000
   O     53.07000000    55.21000000    54.71000000
   C     52.59000000    56.21000000    51.85000000
   C     51.21000000    55.56000000    51.78000000
   C     50.12000000    56.63000000    51.93000000
   C     48.73000000    56.02000000    52.02000000
   N     48.51000000    55.35000000    53.32000000
   H     53.29000000    54.24000000    50.52000000
   H     54.59000000    55.69000000    52.64000000
   H     52.82000000    56.67000000    50.89000000
   H     52.47000000    57.00000000    52.59000000
   H     51.10000000    54.84000000    52.59000000
   H     51.03000000    55.07000000    50.83000000
   H     50.29000000    57.33000000    51.12000000
   H     50.17000000    57.26000000    52.82000000
   H     48.57000000    55.30000000    51.22000000
   H     48.05000000    56.85000000    51.88000000
   H     49.07000000    54.52000000    53.33000000
   H     48.76000000    55.92000000    54.11000000
   H     47.54000000    55.06000000    53.38000000
   N     53.11000000    53.26000000    53.72000000
   C     53.23000000    52.55000000    54.98000000
   C     54.17000000    51.35000000    54.90000000
   O     54.31000000    50.72000000    53.86000000
   C     51.90000000    52.37000000    55.70000000
   C     50.59000000    52.35000000    54.93000000
   O     50.11000000    51.25000000    54.61000000
   O     49.98000000    53.43000000    54.78000000
   H     53.38000000    52.77000000    52.88000000
   H     53.74000000    53.21000000    55.68000000
   H     51.86000000    53.11000000    56.50000000
   H     52.01000000    51.48000000    56.33000000
   N     54.79000000    51.04000000    56.04000000
   C     55.93000000    50.16000000    56.14000000
   C     55.76000000    48.68000000    55.84000000
   O     56.71000000    48.09000000    55.32000000
   H     54.58000000    51.69000000    56.79000000
   H     56.50000000    50.35000000    57.05000000
   H     56.57000000    50.51000000    55.32000000
   N     54.61000000    48.05000000    56.11000000
   C     54.46000000    46.65000000    55.76000000
   C     54.30000000    46.39000000    54.27000000
   O     54.53000000    45.27000000    53.82000000
   C     53.35000000    46.03000000    56.61000000
   C     52.16000000    45.46000000    55.86000000
   N     51.87000000    44.16000000    55.94000000
   O     51.43000000    46.17000000    55.16000000
   H     53.97000000    48.41000000    56.80000000
   H     55.36000000    46.10000000    56.01000000
   H     53.01000000    46.82000000    57.28000000
   H     53.85000000    45.24000000    57.18000000
   H     52.31000000    43.58000000    56.64000000
   H     51.10000000    43.77000000    55.41000000
   N     53.96000000    47.39000000    53.45000000
   C     53.80000000    47.25000000    52.02000000
   C     52.60000000    46.48000000    51.50000000
   O     52.20000000    46.74000000    50.37000000
   H     53.60000000    48.22000000    53.90000000
   H     54.56000000    46.54000000    51.69000000
   H     53.84000000    48.22000000    51.52000000
   N     52.10000000    45.47000000    52.23000000
   C     50.90000000    44.71000000    51.95000000
   C     49.60000000    45.51000000    51.96000000
   O     48.57000000    44.95000000    51.59000000
   C     50.99000000    43.81000000    50.73000000
   C     52.31000000    43.09000000    50.56000000
   C     52.70000000    42.08000000    51.45000000
   C     53.23000000    43.48000000    49.58000000
   C     53.94000000    41.45000000    51.29000000
   C     54.42000000    42.79000000    49.34000000
   C     54.82000000    41.79000000    50.25000000
   O     56.00000000    41.13000000    50.06000000
   H     52.62000000    45.20000000    53.06000000
   H     50.65000000    44.20000000    52.88000000
   H     50.71000000    44.37000000    49.84000000
   H     50.21000000    43.05000000    50.79000000
   H     52.02000000    41.81000000    52.24000000
   H     52.97000000    44.24000000    48.85000000
   H     54.13000000    40.60000000    51.93000000
   H     55.15000000    43.22000000    48.66000000
   H     56.42000000    41.43000000    49.25000000
   N     49.67000000    46.76000000    52.41000000
   C     48.53000000    47.64000000    52.59000000
   C     47.64000000    47.25000000    53.76000000
   O     47.39000000    48.19000000    54.51000000
   C     47.83000000    47.98000000    51.28000000
   C     47.87000000    49.46000000    50.88000000
   C     46.44000000    47.37000000    51.17000000
   C     47.36000000    49.75000000    49.47000000
   H     50.62000000    47.00000000    52.65000000
   H     49.00000000    48.58000000    52.85000000
   H     48.46000000    47.51000000    50.53000000
   H     48.92000000    49.74000000    50.96000000
   H     47.37000000    50.01000000    51.67000000
   H     46.48000000    46.28000000    51.22000000
   H     45.69000000    47.72000000    51.88000000
   H     46.01000000    47.71000000    50.23000000
   H     47.41000000    48.85000000    48.86000000
   H     46.34000000    50.11000000    49.52000000
   H     48.04000000    50.46000000    49.00000000
   N     47.12000000    46.02000000    53.87000000
   C     46.25000000    45.81000000    55.00000000
   C     44.78000000    45.99000000    54.65000000
   O     43.94000000    46.55000000    55.35000000
   C     46.34000000    44.37000000    55.49000000
   O     46.60000000    43.51000000    54.40000000
   H     47.35000000    45.26000000    53.25000000
   H     46.53000000    46.54000000    55.76000000
   H     45.46000000    44.06000000    56.04000000
   H     47.09000000    44.27000000    56.28000000
   H     46.25000000    42.67000000    54.70000000
   N     44.41000000    45.43000000    53.49000000
   C     43.07000000    45.26000000    52.97000000
   C     42.24000000    46.53000000    52.86000000
   O     41.02000000    46.53000000    52.99000000
   C     42.41000000    44.09000000    53.68000000
   H     45.09000000    44.81000000    53.06000000
   H     43.23000000    44.94000000    51.94000000
   H     43.04000000    43.25000000    53.98000000
   H     41.95000000    44.33000000    54.64000000
   H     41.67000000    43.65000000    53.01000000
   N     42.87000000    47.71000000    52.79000000
   C     42.36000000    49.06000000    52.79000000
   C     43.00000000    49.90000000    51.70000000
   O     43.82000000    49.37000000    50.94000000
   C     42.59000000    49.70000000    54.16000000
   H     43.88000000    47.64000000    52.75000000
   H     41.29000000    49.07000000    52.58000000
   H     42.40000000    49.01000000    54.99000000
   H     43.62000000    50.05000000    54.22000000
   H     41.89000000    50.53000000    54.26000000
   N     42.67000000    51.19000000    51.71000000
   C     43.20000000    52.38000000    51.07000000
   C     43.59000000    52.31000000    49.60000000
   O     43.89000000    53.36000000    49.04000000
   C     44.23000000    53.05000000    51.98000000
   C     45.58000000    52.35000000    52.07000000
   C     46.33000000    52.66000000    53.36000000
   O     46.34000000    53.83000000    53.81000000
   O     46.84000000    51.68000000    53.95000000
   H     42.03000000    51.42000000    52.46000000
   H     42.36000000    53.05000000    51.22000000
   H     43.90000000    53.35000000    52.97000000
   H     44.38000000    54.01000000    51.48000000
   H     46.18000000    52.72000000    51.24000000
   H     45.55000000    51.26000000    51.97000000
   N     43.59000000    51.17000000    48.90000000
   C     44.05000000    51.16000000    47.52000000
   H     45.07800000    50.80000000    47.48300000
   H     43.41300000    50.50200000    46.92900000
   H     44.00500000    52.17100000    47.11400000
   H     43.45000000    50.30000000    49.38000000
  Ca     48.01000000    50.34000000    55.80000000
   O     45.42000000    51.22000000    56.93000000
   H     45.16000000    50.80000000    57.75000000
   H     44.72000000    51.83000000    56.73000000
   O     49.63000000    51.36000000    57.84000000
   H     49.47000000    50.88000000    58.65000000
   H     50.24000000    52.06000000    58.08000000
   O     50.17000000    48.43000000    56.04000000
   H     50.89000000    47.95000000    55.63000000
   H     49.72000000    47.79000000    56.59000000
   O     47.90000000    53.09000000    56.19000000
   H     48.69000000    53.31000000    55.70000000
   H     47.19000000    53.19000000    55.56000000
   O     47.14000000    49.02000000    58.25000000
   H     47.23000000    48.98000000    59.21000000
   H     46.41000000    48.43000000    58.06000000

Ca 1.70



