%chk=loop4.cluster91.chk
%nprocshared=48
%mem=10GB
%nosave
#b3lyp/svp scf=(tight,noincore) Test 
#IOP(5/87=12) Density=Current Pop=(MK,readradii) iop(6/33=2) iop(6/42=6)

loop4.cluster91 

   -3  1 
   C     79.45000000    46.31000000    84.48000000
   C     80.48000000    45.18000000    84.54000000
   O     81.26000000    45.04000000    83.61000000
   H     78.54900000    46.00900000    85.01500000
   H     79.86500000    47.20500000    84.94300000
   H     79.20100000    46.52000000    83.44000000
   N     80.44000000    44.28000000    85.53000000
   C     81.33000000    43.14000000    85.62000000
   C     82.78000000    43.40000000    86.00000000
   O     83.68000000    42.57000000    85.91000000
   C     81.12000000    42.09000000    84.54000000
   C     79.69000000    42.02000000    84.04000000
   O     78.90000000    41.29000000    84.69000000
   O     79.19000000    42.79000000    83.19000000
   H     79.73000000    44.34000000    86.24000000
   H     80.93000000    42.59000000    86.48000000
   H     81.36000000    41.06000000    84.80000000
   H     81.77000000    42.42000000    83.73000000
   N     83.02000000    44.65000000    86.40000000
   C     84.28000000    45.18000000    86.88000000
   C     84.35000000    45.47000000    88.37000000
   O     83.74000000    46.43000000    88.82000000
   C     84.60000000    46.40000000    86.01000000
   C     84.60000000    46.10000000    84.52000000
   C     85.82000000    47.22000000    86.41000000
   C     85.56000000    45.08000000    83.92000000
   H     82.19000000    45.22000000    86.33000000
   H     85.06000000    44.44000000    86.70000000
   H     83.74000000    47.07000000    86.10000000
   H     84.82000000    47.07000000    84.07000000
   H     83.57000000    45.79000000    84.31000000
   H     85.74000000    47.54000000    87.45000000
   H     86.70000000    46.58000000    86.42000000
   H     85.89000000    48.10000000    85.77000000
   H     86.61000000    45.34000000    84.04000000
   H     85.23000000    44.14000000    84.36000000
   H     85.44000000    45.00000000    82.83000000
   N     85.15000000    44.75000000    89.16000000
   C     86.21000000    43.79000000    88.90000000
   C     85.68000000    42.39000000    88.62000000
   O     86.32000000    41.67000000    87.85000000
   C     87.13000000    43.79000000    90.12000000
   C     88.08000000    44.96000000    90.29000000
   O     89.16000000    44.91000000    89.67000000
   O     87.75000000    45.93000000    91.02000000
   H     85.13000000    44.98000000    90.14000000
   H     86.75000000    44.03000000    87.99000000
   H     87.77000000    42.91000000    90.00000000
   H     86.48000000    43.69000000    90.98000000
   N     84.55000000    42.02000000    89.22000000
   C     83.78000000    40.82000000    88.97000000
   C     84.64000000    39.57000000    89.09000000
   O     85.40000000    39.42000000    90.05000000
   H     84.11000000    42.75000000    89.76000000
   H     83.49000000    40.96000000    87.93000000
   H     82.87000000    40.85000000    89.57000000
   N     84.43000000    38.66000000    88.14000000
   C     85.00000000    37.33000000    88.13000000
   C     86.21000000    37.28000000    87.21000000
   O     87.02000000    36.36000000    87.18000000
   C     84.07000000    36.16000000    87.78000000
   C     83.30000000    36.03000000    86.48000000
   O     82.57000000    35.03000000    86.32000000
   O     83.47000000    36.92000000    85.61000000
   H     83.88000000    38.94000000    87.34000000
   H     85.36000000    37.10000000    89.14000000
   H     83.25000000    36.15000000    88.49000000
   H     84.64000000    35.26000000    88.02000000
   N     86.28000000    38.29000000    86.35000000
   C     87.31000000    38.45000000    85.34000000
   C     86.86000000    38.07000000    83.94000000
   O     87.64000000    38.43000000    83.05000000
   H     85.56000000    39.00000000    86.35000000
   H     88.18000000    37.82000000    85.55000000
   H     87.62000000    39.50000000    85.43000000
   N     85.82000000    37.26000000    83.76000000
   C     85.51000000    36.66000000    82.47000000
   C     85.27000000    37.65000000    81.35000000
   O     85.80000000    37.50000000    80.24000000
   C     86.51000000    35.53000000    82.22000000
   C     86.37000000    34.43000000    83.27000000
   C     86.81000000    33.02000000    82.91000000
   N     86.69000000    32.20000000    83.96000000
   O     87.16000000    32.59000000    81.82000000
   H     85.07000000    37.26000000    84.43000000
   H     84.55000000    36.16000000    82.59000000
   H     87.52000000    35.92000000    82.17000000
   H     86.28000000    35.08000000    81.25000000
   H     85.31000000    34.29000000    83.51000000
   H     86.88000000    34.71000000    84.19000000
   H     86.43000000    32.61000000    84.85000000
   H     86.89000000    31.22000000    83.87000000
   N     84.49000000    38.69000000    81.61000000
   C     83.99000000    39.60000000    80.59000000
   C     82.92000000    38.88000000    79.78000000
   O     81.91000000    38.33000000    80.22000000
   C     83.42000000    40.89000000    81.17000000
   C     84.55000000    41.83000000    81.56000000
   C     82.52000000    41.65000000    80.20000000
   H     84.00000000    38.72000000    82.49000000
   H     84.82000000    39.91000000    79.97000000
   H     82.95000000    40.68000000    82.13000000
   H     85.19000000    41.26000000    82.24000000
   H     85.15000000    41.94000000    80.65000000
   H     84.14000000    42.75000000    81.99000000
   H     82.00000000    42.46000000    80.70000000
   H     82.96000000    42.01000000    79.27000000
   H     81.64000000    41.05000000    79.96000000
   N     83.08000000    39.02000000    78.47000000
   C     82.19000000    38.54000000    77.43000000
   C     81.54000000    39.76000000    76.77000000
   O     82.18000000    40.80000000    76.70000000
   C     82.99000000    37.65000000    76.48000000
   C     82.32000000    36.91000000    75.33000000
   N     81.16000000    36.30000000    75.58000000
   O     82.80000000    36.75000000    74.21000000
   H     83.91000000    39.47000000    78.10000000
   H     81.42000000    37.95000000    77.93000000
   H     83.58000000    36.91000000    77.03000000
   H     83.74000000    38.32000000    76.07000000
   H     80.77000000    36.26000000    76.51000000
   H     80.83000000    35.66000000    74.87000000
   N     80.31000000    39.58000000    76.27000000
   C     79.52000000    40.74000000    75.93000000
   C     78.06000000    40.46000000    76.26000000
   O     77.48000000    39.40000000    76.03000000
   C     79.71000000    41.03000000    74.44000000
   C     78.99000000    42.23000000    73.87000000
   C     79.64000000    43.42000000    73.53000000
   C     77.61000000    42.14000000    73.61000000
   C     79.01000000    44.51000000    72.93000000
   C     76.95000000    43.23000000    73.03000000
   C     77.65000000    44.38000000    72.59000000
   O     77.03000000    45.38000000    71.91000000
   H     79.88000000    38.68000000    76.42000000
   H     79.82000000    41.57000000    76.56000000
   H     79.47000000    40.14000000    73.86000000
   H     80.75000000    41.25000000    74.23000000
   H     80.71000000    43.54000000    73.62000000
   H     77.02000000    41.27000000    73.85000000
   H     79.46000000    45.38000000    72.46000000
   H     75.89000000    43.16000000    72.83000000
   H     76.13000000    45.12000000    71.71000000
   N     77.27000000    41.42000000    76.75000000
   C     75.83000000    41.45000000    76.91000000
   C     75.12000000    42.78000000    76.73000000
   O     74.17000000    42.74000000    75.95000000
   C     75.52000000    40.70000000    78.20000000
   C     74.19000000    41.00000000    78.88000000
   C     73.66000000    39.97000000    79.88000000
   O     73.21000000    40.38000000    80.97000000
   O     73.70000000    38.73000000    79.69000000
   H     77.73000000    42.33000000    76.74000000
   H     75.34000000    40.81000000    76.17000000
   H     76.25000000    40.85000000    79.00000000
   H     75.51000000    39.62000000    78.08000000
   H     73.47000000    41.04000000    78.07000000
   H     74.28000000    41.94000000    79.43000000
   N     75.44000000    43.90000000    77.38000000
   C     76.58000000    44.11000000    78.26000000
   C     77.85000000    44.47000000    77.51000000
   O     77.81000000    44.57000000    76.28000000
   C     76.26000000    45.25000000    79.22000000
   C     75.22000000    44.87000000    80.27000000
   C     75.88000000    44.20000000    81.47000000
   O     75.72000000    44.72000000    82.60000000
   O     76.58000000    43.17000000    81.35000000
   H     74.92000000    44.69000000    77.02000000
   H     76.78000000    43.24000000    78.88000000
   H     75.90000000    46.13000000    78.67000000
   H     77.16000000    45.49000000    79.79000000
   H     74.46000000    44.24000000    79.81000000
   H     74.76000000    45.79000000    80.64000000
   N     78.92000000    44.73000000    78.26000000
   C     80.14000000    45.46000000    77.96000000
   H     80.94000000    44.75400000    77.74000000
   H     79.97600000    46.10300000    77.09600000
   H     80.42000000    46.06900000    78.81900000
   H     78.73000000    44.57000000    79.24000000
  Ca     76.68000000    42.65000000    83.96000000
   O     76.80000000    40.04000000    82.68000000
   H     76.03000000    39.60000000    82.31000000
   H     77.55000000    39.60000000    82.28000000
   O     75.62000000    40.71000000    85.91000000
   H     76.26000000    40.09000000    86.25000000
   H     75.19000000    41.06000000    86.69000000
   O     74.28000000    41.61000000    83.09000000
   H     73.75000000    42.01000000    83.79000000
   H     73.64000000    41.20000000    82.51000000

Ca 1.70



