%chk=loop3.cluster49.chk
%nprocshared=48
%mem=10GB
%nosave
#b3lyp/svp scf=(tight,noincore) Test 
#IOP(5/87=12) Density=Current Pop=(MK,readradii) iop(6/33=2) iop(6/42=6)

loop3.cluster49 

   0  1 
   C     58.79000000    49.91000000    42.05000000
   C     58.07000000    49.84000000    43.39000000
   O     58.58000000    49.17000000    44.28000000
   H     59.79500000    49.50100000    42.15600000
   H     58.23800000    49.33000000    41.31000000
   H     58.85400000    50.94800000    41.72500000
   N     56.87000000    50.39000000    43.59000000
   C     56.15000000    50.27000000    44.84000000
   C     55.39000000    48.96000000    44.78000000
   O     54.66000000    48.71000000    43.83000000
   C     55.16000000    51.42000000    45.00000000
   C     54.47000000    51.38000000    46.35000000
   O     53.23000000    51.24000000    46.43000000
   O     55.17000000    51.64000000    47.35000000
   H     56.37000000    50.90000000    42.87000000
   H     56.79000000    50.28000000    45.72000000
   H     54.41000000    51.36000000    44.21000000
   H     55.70000000    52.34000000    44.75000000
   N     55.49000000    48.05000000    45.76000000
   C     54.90000000    46.73000000    45.74000000
   C     53.73000000    46.49000000    46.68000000
   O     52.72000000    45.87000000    46.35000000
   C     55.95000000    45.70000000    46.17000000
   C     57.20000000    45.67000000    45.30000000
   C     56.87000000    45.11000000    43.92000000
   C     57.96000000    44.63000000    42.96000000
   N     57.52000000    44.82000000    41.57000000
   H     56.10000000    48.29000000    46.53000000
   H     54.60000000    46.46000000    44.73000000
   H     55.45000000    44.74000000    46.24000000
   H     56.27000000    45.94000000    47.18000000
   H     57.83000000    44.95000000    45.81000000
   H     57.78000000    46.59000000    45.29000000
   H     56.20000000    45.78000000    43.39000000
   H     56.13000000    44.32000000    44.06000000
   H     58.04000000    43.55000000    43.06000000
   H     58.85000000    45.26000000    43.05000000
   H     58.20000000    44.63000000    40.86000000
   H     56.65000000    44.35000000    41.37000000
   H     57.30000000    45.80000000    41.46000000
   N     53.85000000    47.09000000    47.87000000
   C     52.84000000    47.01000000    48.90000000
   C     51.59000000    47.81000000    48.58000000
   O     50.51000000    47.31000000    48.89000000
   C     53.40000000    47.31000000    50.29000000
   C     54.14000000    48.64000000    50.33000000
   O     55.26000000    48.55000000    50.87000000
   O     53.71000000    49.70000000    49.83000000
   H     54.78000000    47.37000000    48.16000000
   H     52.62000000    45.94000000    48.93000000
   H     54.06000000    46.52000000    50.64000000
   H     52.62000000    47.26000000    51.05000000
   N     51.76000000    48.83000000    47.73000000
   C     50.71000000    49.78000000    47.46000000
   C     50.67000000    51.11000000    48.21000000
   O     49.76000000    51.91000000    48.02000000
   H     52.63000000    48.98000000    47.23000000
   H     49.74000000    49.31000000    47.64000000
   H     50.75000000    50.01000000    46.40000000
   N     51.65000000    51.41000000    49.06000000
   C     51.71000000    52.56000000    49.93000000
   C     52.16000000    53.90000000    49.35000000
   O     51.89000000    54.91000000    49.99000000
   C     52.35000000    52.24000000    51.28000000
   C     53.84000000    52.52000000    51.42000000
   N     54.35000000    52.61000000    52.65000000
   O     54.65000000    52.63000000    50.50000000
   H     52.42000000    50.75000000    49.09000000
   H     50.67000000    52.82000000    50.14000000
   H     52.11000000    51.20000000    51.46000000
   H     51.79000000    52.77000000    52.05000000
   H     53.73000000    52.51000000    53.44000000
   H     55.33000000    52.76000000    52.81000000
   N     52.79000000    53.81000000    48.17000000
   C     53.14000000    54.95000000    47.36000000
   C     54.55000000    55.48000000    47.61000000
   O     54.80000000    56.66000000    47.42000000
   H     53.05000000    52.89000000    47.84000000
   H     52.43000000    55.77000000    47.49000000
   H     52.94000000    54.73000000    46.31000000
   N     55.44000000    54.58000000    48.03000000
   C     56.78000000    54.90000000    48.47000000
   C     57.81000000    53.82000000    48.18000000
   O     57.69000000    52.71000000    48.68000000
   C     56.78000000    55.21000000    49.97000000
   C     55.83000000    56.31000000    50.39000000
   C     56.28000000    57.63000000    50.27000000
   C     54.70000000    56.08000000    51.18000000
   C     55.61000000    58.72000000    50.83000000
   C     53.90000000    57.16000000    51.56000000
   C     54.32000000    58.49000000    51.35000000
   O     53.80000000    59.64000000    51.84000000
   H     55.11000000    53.62000000    47.99000000
   H     57.15000000    55.78000000    47.95000000
   H     57.73000000    55.57000000    50.35000000
   H     56.49000000    54.33000000    50.55000000
   H     57.07000000    57.85000000    49.57000000
   H     54.38000000    55.08000000    51.44000000
   H     55.93000000    59.75000000    50.70000000
   H     52.99000000    56.92000000    52.09000000
   H     52.96000000    59.46000000    52.27000000
   N     58.81000000    53.96000000    47.30000000
   C     59.80000000    52.93000000    47.05000000
   C     60.84000000    52.94000000    48.16000000
   O     61.73000000    53.79000000    48.27000000
   C     60.51000000    53.13000000    45.71000000
   C     59.57000000    53.60000000    44.60000000
   C     61.32000000    51.88000000    45.38000000
   C     60.25000000    54.33000000    43.45000000
   H     58.97000000    54.91000000    46.99000000
   H     59.19000000    52.03000000    47.01000000
   H     61.30000000    53.87000000    45.76000000
   H     58.80000000    54.29000000    44.94000000
   H     58.95000000    52.74000000    44.34000000
   H     61.93000000    51.55000000    46.22000000
   H     60.64000000    51.06000000    45.13000000
   H     62.06000000    52.14000000    44.62000000
   H     59.45000000    54.66000000    42.78000000
   H     60.79000000    55.19000000    43.84000000
   H     60.96000000    53.64000000    43.00000000
   N     60.85000000    51.82000000    48.88000000
   C     61.88000000    51.52000000    49.86000000
   C     63.01000000    50.69000000    49.29000000
   O     62.93000000    50.12000000    48.20000000
   C     61.18000000    50.80000000    51.01000000
   O     60.58000000    49.59000000    50.60000000
   H     60.07000000    51.18000000    48.78000000
   H     62.27000000    52.47000000    50.22000000
   H     60.53000000    51.50000000    51.53000000
   H     61.95000000    50.49000000    51.70000000
   H     59.80000000    49.81000000    50.09000000
   N     64.06000000    50.47000000    50.08000000
   C     65.17000000    49.59000000    49.76000000
   C     64.72000000    48.15000000    49.51000000
   O     65.30000000    47.62000000    48.57000000
   C     66.25000000    49.71000000    50.82000000
   H     64.13000000    50.92000000    50.98000000
   H     65.49000000    49.92000000    48.77000000
   H     67.13000000    49.21000000    50.41000000
   H     66.50000000    50.77000000    50.89000000
   H     65.95000000    49.22000000    51.75000000
   N     63.82000000    47.61000000    50.33000000
   C     63.32000000    46.26000000    50.17000000
   C     62.45000000    46.00000000    48.95000000
   O     62.47000000    44.87000000    48.47000000
   C     62.67000000    45.75000000    51.46000000
   H     63.49000000    48.05000000    51.17000000
   H     64.24000000    45.67000000    50.07000000
   H     63.29000000    45.92000000    52.34000000
   H     61.71000000    46.20000000    51.68000000
   H     62.67000000    44.67000000    51.32000000
   N     61.90000000    47.04000000    48.33000000
   C     61.12000000    47.05000000    47.11000000
   C     61.89000000    47.38000000    45.84000000
   O     61.61000000    46.88000000    44.75000000
   C     59.98000000    48.04000000    47.39000000
   C     58.90000000    47.55000000    48.34000000
   C     57.94000000    48.71000000    48.53000000
   O     56.72000000    48.62000000    48.28000000
   O     58.34000000    49.77000000    49.07000000
   H     62.04000000    47.91000000    48.82000000
   H     60.55000000    46.14000000    46.92000000
   H     59.49000000    48.34000000    46.47000000
   H     60.42000000    48.94000000    47.82000000
   H     59.28000000    47.33000000    49.34000000
   H     58.50000000    46.65000000    47.87000000
   N     62.87000000    48.28000000    45.97000000
   C     63.87000000    48.37000000    44.92000000
   H     64.80000000    47.91700000    45.26500000
   H     63.51600000    47.84300000    44.03400000
   H     64.04600000    49.41700000    44.67400000
   H     63.00000000    48.80000000    46.82000000
  Ca     55.99000000    50.71000000    49.48000000
   O     57.13000000    51.03000000    51.90000000
   H     57.93000000    51.34000000    52.34000000
   H     56.56000000    50.76000000    52.62000000

Ca 1.70



