%chk=loop3.cluster130.chk
%nprocshared=48
%mem=10GB
%nosave
#b3lyp/svp scf=(tight,noincore) Test 
#IOP(5/87=12) Density=Current Pop=(MK,readradii) iop(6/33=2) iop(6/42=6)

loop3.cluster130 

   0  1 
   C     95.11000000    55.10000000    28.68000000
   C     95.75000000    53.73000000    28.49000000
   O     95.27000000    52.78000000    29.12000000
   H     94.14100000    54.98300000    29.16500000
   H     95.75500000    55.72000000    29.30300000
   H     94.97500000    55.57600000    27.70900000
   N     96.87000000    53.71000000    27.77000000
   C     97.59000000    52.47000000    27.58000000
   C     98.98000000    52.54000000    28.20000000
   O     99.53000000    53.62000000    28.37000000
   C     97.83000000    52.30000000    26.09000000
   C     98.39000000    50.91000000    25.78000000
   O     97.59000000    49.95000000    25.78000000
   O     99.60000000    50.82000000    25.47000000
   H     97.25000000    54.62000000    27.53000000
   H     96.95000000    51.67000000    27.97000000
   H     98.51000000    53.07000000    25.73000000
   H     96.89000000    52.34000000    25.54000000
   N     99.40000000    51.38000000    28.72000000
   C    100.49000000    51.20000000    29.66000000
   C    101.86000000    51.70000000    29.23000000
   O    102.67000000    52.12000000    30.06000000
   C    100.59000000    49.77000000    30.19000000
   C    101.24000000    48.79000000    29.21000000
   C    100.80000000    47.37000000    29.56000000
   C    101.43000000    46.47000000    28.50000000
   N    102.84000000    46.13000000    28.73000000
   H     98.91000000    50.51000000    28.60000000
   H    100.26000000    51.88000000    30.48000000
   H     99.60000000    49.37000000    30.42000000
   H    101.19000000    49.71000000    31.09000000
   H    102.32000000    48.92000000    29.22000000
   H    100.89000000    48.98000000    28.20000000
   H     99.71000000    47.31000000    29.51000000
   H    101.19000000    46.98000000    30.49000000
   H    101.33000000    46.83000000    27.48000000
   H    100.92000000    45.50000000    28.54000000
   H    102.99000000    45.97000000    29.72000000
   H    103.13000000    45.32000000    28.20000000
   H    103.43000000    46.93000000    28.55000000
   N    102.07000000    51.83000000    27.92000000
   C    103.28000000    52.44000000    27.39000000
   C    102.98000000    53.83000000    26.84000000
   O    103.91000000    54.49000000    26.37000000
   C    103.96000000    51.54000000    26.37000000
   C    103.11000000    51.21000000    25.15000000
   O    102.07000000    51.83000000    24.85000000
   O    103.47000000    50.29000000    24.38000000
   H    101.35000000    51.52000000    27.28000000
   H    104.00000000    52.55000000    28.20000000
   H    104.38000000    50.67000000    26.88000000
   H    104.81000000    52.08000000    25.97000000
   N    101.73000000    54.28000000    26.79000000
   C    101.25000000    55.47000000    26.12000000
   C    101.32000000    55.49000000    24.60000000
   O    100.73000000    56.38000000    23.99000000
   H    100.99000000    53.65000000    27.10000000
   H    101.71000000    56.38000000    26.50000000
   H    100.21000000    55.41000000    26.42000000
   N    101.86000000    54.43000000    23.99000000
   C    101.89000000    54.33000000    22.54000000
   C    100.70000000    53.59000000    21.93000000
   O    100.27000000    52.63000000    22.56000000
   C    103.23000000    53.70000000    22.17000000
   C    103.36000000    53.66000000    20.65000000
   N    103.66000000    54.78000000    19.99000000
   O    103.35000000    52.62000000    20.00000000
   H    102.08000000    53.62000000    24.55000000
   H    101.83000000    55.33000000    22.11000000
   H    103.39000000    52.69000000    22.54000000
   H    104.04000000    54.32000000    22.54000000
   H    103.96000000    55.70000000    20.29000000
   H    103.59000000    54.67000000    18.99000000
   N    100.29000000    53.82000000    20.68000000
   C     99.11000000    53.30000000    20.01000000
   C     99.34000000    51.99000000    19.26000000
   O     98.36000000    51.50000000    18.71000000
   H    100.69000000    54.71000000    20.42000000
   H     98.73000000    54.03000000    19.29000000
   H     98.28000000    53.11000000    20.68000000
   N    100.55000000    51.43000000    19.27000000
   C    100.81000000    50.17000000    18.60000000
   C    100.43000000    49.09000000    19.60000000
   O    100.63000000    49.17000000    20.81000000
   C    102.24000000    50.03000000    18.09000000
   C    102.51000000    50.57000000    16.70000000
   C    102.58000000    49.66000000    15.64000000
   C    102.76000000    51.92000000    16.46000000
   C    102.85000000    50.02000000    14.32000000
   C    103.09000000    52.37000000    15.17000000
   C    103.16000000    51.39000000    14.16000000
   O    103.42000000    51.78000000    12.88000000
   H    101.32000000    51.94000000    19.66000000
   H    100.12000000    50.07000000    17.76000000
   H    102.46000000    48.97000000    17.98000000
   H    102.96000000    50.42000000    18.81000000
   H    102.37000000    48.61000000    15.78000000
   H    102.58000000    52.57000000    17.30000000
   H    102.90000000    49.37000000    13.46000000
   H    103.19000000    53.40000000    14.89000000
   H    103.56000000    52.73000000    12.91000000
   N     99.86000000    48.03000000    19.02000000
   C     99.35000000    46.81000000    19.62000000
   C    100.41000000    45.82000000    20.09000000
   O    101.50000000    46.22000000    20.50000000
   C     98.18000000    47.12000000    20.55000000
   C     97.84000000    46.08000000    21.61000000
   C     96.97000000    47.62000000    19.77000000
   C     96.66000000    46.41000000    22.52000000
   H     99.74000000    48.18000000    18.03000000
   H     98.99000000    46.19000000    18.80000000
   H     98.36000000    47.99000000    21.18000000
   H     98.76000000    45.88000000    22.16000000
   H     97.66000000    45.15000000    21.07000000
   H     96.33000000    48.11000000    20.50000000
   H     97.31000000    48.31000000    19.00000000
   H     96.28000000    46.88000000    19.38000000
   H     96.78000000    45.80000000    23.41000000
   H     96.59000000    47.47000000    22.77000000
   H     95.73000000    46.09000000    22.06000000
   N    100.08000000    44.53000000    20.11000000
   C    100.92000000    43.48000000    20.65000000
   C    100.74000000    42.18000000    19.88000000
   O    101.63000000    41.34000000    19.87000000
   C    100.45000000    43.23000000    22.08000000
   O     99.08000000    42.87000000    22.09000000
   H     99.18000000    44.23000000    19.76000000
   H    101.99000000    43.68000000    20.66000000
   H    100.48000000    44.19000000    22.59000000
   H    100.99000000    42.44000000    22.60000000
   H     98.83000000    42.95000000    23.01000000
   N     99.57000000    41.89000000    19.30000000
   C     99.06000000    40.95000000    18.32000000
   C     99.33000000    39.49000000    18.63000000
   O    100.02000000    38.76000000    17.92000000
   C     99.54000000    41.46000000    16.97000000
   H     98.87000000    42.61000000    19.45000000
   H     97.98000000    41.04000000    18.32000000
   H     99.26000000    40.83000000    16.12000000
   H     99.10000000    42.45000000    16.80000000
   H    100.62000000    41.57000000    16.91000000
   N     98.81000000    38.87000000    19.70000000
   C     97.88000000    39.47000000    20.63000000
   C     96.45000000    39.01000000    20.39000000
   O     96.10000000    37.85000000    20.62000000
   C     98.30000000    39.22000000    22.07000000
   H     99.20000000    37.97000000    19.95000000
   H     97.91000000    40.56000000    20.50000000
   H     98.36000000    38.16000000    22.30000000
   H     99.24000000    39.76000000    22.22000000
   H     97.50000000    39.56000000    22.73000000
   N     95.44000000    39.84000000    20.12000000
   C     95.38000000    41.28000000    20.22000000
   C     94.56000000    41.99000000    19.15000000
   O     94.99000000    43.01000000    18.63000000
   C     94.79000000    41.63000000    21.58000000
   C     95.04000000    43.06000000    22.06000000
   C     94.52000000    43.38000000    23.45000000
   O     93.54000000    44.15000000    23.52000000
   O     95.03000000    42.85000000    24.46000000
   H     94.58000000    39.34000000    19.95000000
   H     96.39000000    41.69000000    20.28000000
   H     95.20000000    40.96000000    22.33000000
   H     93.72000000    41.42000000    21.50000000
   H     94.70000000    43.79000000    21.33000000
   H     96.12000000    43.13000000    22.10000000
   N     93.37000000    41.51000000    18.77000000
   C     92.51000000    42.06000000    17.75000000
   H     91.62100000    42.48500000    18.21600000
   H     93.04300000    42.84000000    17.20700000
   H     92.21500000    41.27100000    17.05800000
   H     92.96000000    40.80000000    19.36000000
  Ca    100.90600000    50.05000000    23.30000000
   O     98.41000000    50.50000000    22.47000000
   H     97.91000000    51.19000000    22.91000000
   H     97.96000000    50.37000000    21.64000000
   O     98.99000000    48.33000000    24.16000000
   H     98.30000000    48.93000000    24.45000000
   H     98.82000000    47.52000000    24.65000000
   O    103.07600000    49.91000000    21.34000000
   H    102.94600000    49.06000000    20.91000000
   H    103.68600000    50.37000000    20.77000000
   O    102.00600000    47.69000000    22.74000000
   H    102.34600000    46.97000000    23.26000000
   H    101.77600000    47.29000000    21.90000000
   O    101.41600000    48.41000000    25.83000000
   H    100.69600000    49.01000000    26.02000000
   H    100.98600000    47.58000000    25.64000000

Ca 1.70



