%chk=loop4.cluster144.chk
%nprocshared=48
%mem=10GB
%nosave
#b3lyp/svp scf=(tight,noincore) Test 
#IOP(5/87=12) Density=Current Pop=(MK,readradii) iop(6/33=2) iop(6/42=6)

loop4.cluster144 

   -3  1 
   C     66.11000000    57.42000000    44.05000000
   C     65.20000000    58.10000000    45.06000000
   O     64.32000000    58.84000000    44.62000000
   H     67.07200000    57.20600000    44.51500000
   H     65.65300000    56.48800000    43.71700000
   H     66.25900000    58.07800000    43.19400000
   N     65.32000000    57.80000000    46.36000000
   C     64.61000000    58.48000000    47.43000000
   C     65.08000000    59.92000000    47.54000000
   O     66.27000000    60.24000000    47.48000000
   C     64.73000000    57.66000000    48.71000000
   C     64.23000000    58.39000000    49.95000000
   O     63.15000000    59.00000000    49.85000000
   O     64.90000000    58.25000000    51.00000000
   H     65.96000000    57.06000000    46.62000000
   H     63.55000000    58.52000000    47.19000000
   H     65.74000000    57.28000000    48.86000000
   H     64.14000000    56.76000000    48.56000000
   N     64.15000000    60.85000000    47.74000000
   C     64.38000000    62.28000000    47.74000000
   C     64.41000000    62.85000000    49.15000000
   O     65.46000000    63.32000000    49.59000000
   C     63.42000000    62.97000000    46.78000000
   C     63.84000000    62.67000000    45.34000000
   C     63.50000000    64.47000000    47.05000000
   C     62.94000000    63.25000000    44.26000000
   H     63.18000000    60.55000000    47.70000000
   H     65.41000000    62.51000000    47.44000000
   H     62.37000000    62.69000000    46.93000000
   H     63.83000000    61.59000000    45.20000000
   H     64.81000000    63.10000000    45.10000000
   H     64.48000000    64.86000000    46.79000000
   H     62.88000000    65.07000000    46.39000000
   H     63.29000000    64.62000000    48.11000000
   H     62.88000000    64.34000000    44.32000000
   H     63.32000000    62.93000000    43.29000000
   H     61.93000000    62.92000000    44.46000000
   N     63.43000000    62.68000000    50.03000000
   C     63.45000000    63.18000000    51.39000000
   C     64.30000000    62.40000000    52.39000000
   O     64.53000000    62.91000000    53.48000000
   C     62.00000000    63.17000000    51.88000000
   C     61.22000000    61.87000000    51.86000000
   O     60.87000000    61.42000000    50.75000000
   O     60.94000000    61.29000000    52.94000000
   H     62.64000000    62.15000000    49.69000000
   H     63.80000000    64.21000000    51.35000000
   H     61.38000000    63.78000000    51.23000000
   H     62.03000000    63.68000000    52.84000000
   N     64.72000000    61.15000000    52.20000000
   C     65.41000000    60.32000000    53.16000000
   C     64.43000000    59.64000000    54.10000000
   O     64.50000000    59.84000000    55.31000000
   H     64.56000000    60.68000000    51.32000000
   H     66.11000000    60.90000000    53.77000000
   H     66.06000000    59.54000000    52.76000000
   N     63.53000000    58.78000000    53.61000000
   C     62.94000000    57.69000000    54.35000000
   C     63.42000000    56.30000000    53.96000000
   O     63.14000000    55.29000000    54.61000000
   C     61.42000000    57.76000000    54.50000000
   C     60.67000000    57.62000000    53.18000000
   O     59.44000000    57.43000000    53.24000000
   O     61.18000000    57.91000000    52.07000000
   H     63.30000000    58.77000000    52.63000000
   H     63.26000000    57.78000000    55.39000000
   H     61.19000000    58.79000000    54.77000000
   H     61.07000000    57.10000000    55.29000000
   N     64.26000000    56.26000000    52.93000000
   C     64.74000000    55.06000000    52.28000000
   C     63.75000000    54.29000000    51.42000000
   O     63.85000000    53.09000000    51.19000000
   H     64.45000000    57.10000000    52.40000000
   H     65.21000000    54.31000000    52.92000000
   H     65.51000000    55.52000000    51.65000000
   N     62.71000000    54.96000000    50.91000000
   C     61.53000000    54.48000000    50.22000000
   C     61.23000000    55.35000000    49.01000000
   O     61.51000000    56.55000000    49.01000000
   C     60.31000000    54.48000000    51.14000000
   C     60.29000000    53.25000000    52.03000000
   C     59.21000000    53.26000000    53.10000000
   N     59.17000000    52.44000000    54.16000000
   O     58.26000000    54.04000000    53.04000000
   H     62.57000000    55.93000000    51.18000000
   H     61.71000000    53.46000000    49.88000000
   H     59.40000000    54.42000000    50.55000000
   H     60.29000000    55.43000000    51.68000000
   H     61.27000000    53.22000000    52.51000000
   H     60.17000000    52.28000000    51.55000000
   H     59.78000000    51.64000000    54.23000000
   H     58.53000000    52.59000000    54.92000000
   N     60.68000000    54.74000000    47.96000000
   C     60.46000000    55.38000000    46.68000000
   C     58.97000000    55.40000000    46.35000000
   O     58.36000000    54.36000000    46.14000000
   C     61.31000000    54.74000000    45.58000000
   C     61.06000000    55.31000000    44.19000000
   C     62.76000000    54.89000000    46.02000000
   H     60.49000000    53.75000000    47.96000000
   H     60.74000000    56.43000000    46.73000000
   H     61.06000000    53.68000000    45.63000000
   H     61.71000000    56.19000000    44.08000000
   H     61.12000000    54.56000000    43.41000000
   H     60.02000000    55.62000000    44.16000000
   H     62.94000000    54.26000000    46.89000000
   H     63.31000000    54.46000000    45.19000000
   H     63.16000000    55.89000000    46.20000000
   N     58.41000000    56.61000000    46.26000000
   C     57.00000000    56.79000000    45.96000000
   C     56.83000000    57.13000000    44.49000000
   O     57.83000000    57.22000000    43.77000000
   C     56.35000000    57.77000000    46.93000000
   C     56.23000000    59.21000000    46.45000000
   N     57.33000000    59.92000000    46.75000000
   O     55.24000000    59.60000000    45.84000000
   H     59.00000000    57.41000000    46.42000000
   H     56.43000000    55.86000000    46.06000000
   H     56.77000000    57.60000000    47.92000000
   H     55.30000000    57.53000000    47.01000000
   H     58.11000000    59.41000000    47.14000000
   H     57.18000000    60.91000000    46.86000000
   N     55.62000000    57.18000000    43.94000000
   C     55.42000000    57.40000000    42.52000000
   C     56.07000000    58.66000000    41.97000000
   O     56.71000000    58.67000000    40.92000000
   C     53.93000000    57.46000000    42.19000000
   C     53.67000000    57.55000000    40.70000000
   C     54.07000000    56.53000000    39.83000000
   C     53.20000000    58.76000000    40.18000000
   C     53.89000000    56.64000000    38.44000000
   C     52.91000000    58.85000000    38.81000000
   C     53.27000000    57.81000000    37.94000000
   O     53.15000000    57.96000000    36.59000000
   H     54.83000000    57.04000000    44.56000000
   H     55.85000000    56.54000000    42.00000000
   H     53.32000000    58.18000000    42.74000000
   H     53.48000000    56.54000000    42.56000000
   H     54.61000000    55.68000000    40.21000000
   H     53.01000000    59.61000000    40.83000000
   H     54.19000000    55.89000000    37.73000000
   H     52.45000000    59.72000000    38.36000000
   H     52.84000000    58.85000000    36.40000000
   N     56.13000000    59.75000000    42.74000000
   C     56.66000000    61.04000000    42.38000000
   C     58.18000000    61.02000000    42.34000000
   O     58.73000000    61.81000000    41.58000000
   C     56.11000000    62.05000000    43.38000000
   C     54.59000000    62.18000000    43.48000000
   C     54.14000000    63.22000000    44.50000000
   O     54.63000000    63.24000000    45.64000000
   O     53.37000000    64.13000000    44.12000000
   H     55.66000000    59.72000000    43.64000000
   H     56.36000000    61.27000000    41.35000000
   H     56.41000000    63.05000000    43.06000000
   H     56.57000000    61.84000000    44.35000000
   H     54.14000000    61.21000000    43.65000000
   H     54.15000000    62.52000000    42.54000000
   N     58.84000000    60.12000000    43.07000000
   C     60.27000000    59.87000000    43.02000000
   C     60.66000000    58.99000000    41.84000000
   O     61.74000000    59.15000000    41.29000000
   C     60.68000000    59.20000000    44.33000000
   C     60.62000000    60.25000000    45.43000000
   C     60.66000000    59.71000000    46.86000000
   O     61.45000000    60.13000000    47.73000000
   O     59.85000000    58.84000000    47.25000000
   H     58.39000000    59.56000000    43.78000000
   H     60.74000000    60.85000000    42.89000000
   H     61.67000000    58.83000000    44.06000000
   H     59.95000000    58.40000000    44.47000000
   H     59.70000000    60.83000000    45.31000000
   H     61.45000000    60.93000000    45.30000000
   N     59.81000000    58.01000000    41.52000000
   C     59.95000000    57.15000000    40.35000000
   H     60.99900000    56.88300000    40.21900000
   H     59.36000000    56.24400000    40.49100000
   H     59.59700000    57.67900000    39.46500000
   H     58.95000000    57.96000000    42.03000000
  Ca     60.59000000    58.96000000    49.85000000
   O     58.60000000    57.03000000    50.74000000
   H     58.02000000    56.28000000    50.67000000
   H     58.76000000    57.13000000    51.68000000
   O     58.41000000    60.53000000    49.49000000
   H     58.62000000    60.90000000    50.35000000
   H     57.55000000    60.89000000    49.27000000
   O     58.87000000    59.90000000    52.24000000
   H     59.70000000    60.28000000    52.50000000
   H     58.81000000    59.09000000    52.75000000

Ca 1.70



