%chk=loop2.cluster21.chk
%nprocshared=48
%mem=10GB
%nosave
#b3lyp/svp scf=(tight,noincore) Test 
#IOP(5/87=12) Density=Current Pop=(MK,readradii) iop(6/33=2) iop(6/42=6)

loop2.cluster21 

   -2  1 
   C     59.00000000    50.08000000    16.34000000
   C     60.30000000    49.83000000    15.60000000
   O     61.20000000    50.66000000    15.73000000
   H     58.20400000    49.49100000    15.88400000
   H     59.11400000    49.78900000    17.38400000
   H     58.74600000    51.13900000    16.28300000
   N     60.44000000    48.78000000    14.79000000
   C     61.73000000    48.43000000    14.23000000
   C     62.10000000    49.29000000    13.03000000
   O     61.38000000    49.32000000    12.04000000
   C     61.79000000    46.91000000    14.03000000
   C     63.15000000    46.35000000    13.66000000
   O     64.19000000    47.03000000    13.79000000
   O     63.28000000    45.13000000    13.42000000
   H     59.64000000    48.17000000    14.69000000
   H     62.43000000    48.69000000    15.02000000
   H     61.11000000    46.58000000    13.24000000
   H     61.48000000    46.47000000    14.97000000
   N     63.16000000    50.09000000    13.21000000
   C     63.64000000    50.99000000    12.18000000
   C     64.77000000    50.51000000    11.28000000
   O     65.01000000    51.14000000    10.25000000
   C     64.03000000    52.33000000    12.80000000
   H     63.61000000    49.93000000    14.10000000
   H     62.85000000    51.17000000    11.45000000
   H     65.03000000    52.36000000    13.24000000
   H     63.87000000    53.17000000    12.12000000
   H     63.39000000    52.56000000    13.65000000
   N     65.27000000    49.30000000    11.54000000
   C     66.18000000    48.57000000    10.69000000
   C     65.84000000    47.11000000    10.46000000
   O     66.52000000    46.37000000     9.75000000
   C     67.61000000    48.73000000    11.22000000
   C     67.97000000    48.34000000    12.65000000
   O     67.08000000    47.82000000    13.36000000
   O     69.14000000    48.61000000    12.99000000
   H     64.96000000    48.75000000    12.33000000
   H     66.22000000    49.09000000     9.73000000
   H     67.82000000    49.77000000    10.99000000
   H     68.32000000    48.14000000    10.65000000
   N     64.73000000    46.61000000    11.02000000
   C     64.12000000    45.38000000    10.55000000
   C     64.97000000    44.13000000    10.76000000
   O     65.24000000    43.32000000     9.87000000
   H     64.10000000    47.17000000    11.58000000
   H     63.93000000    45.53000000     9.49000000
   H     63.14000000    45.26000000    11.01000000
   N     65.41000000    44.01000000    12.01000000
   C     66.29000000    43.00000000    12.56000000
   C     65.73000000    42.12000000    13.67000000
   O     66.27000000    41.12000000    14.14000000
   C     67.66000000    43.62000000    12.85000000
   C     67.69000000    44.57000000    14.04000000
   N     68.89000000    45.05000000    14.39000000
   O     66.72000000    44.87000000    14.72000000
   H     64.86000000    44.57000000    12.65000000
   H     66.33000000    42.23000000    11.80000000
   H     68.11000000    44.16000000    12.02000000
   H     68.30000000    42.78000000    13.13000000
   H     69.64000000    45.04000000    13.71000000
   H     68.92000000    45.65000000    15.19000000
   N     64.54000000    42.51000000    14.15000000
   C     63.67000000    41.91000000    15.13000000
   C     64.02000000    42.12000000    16.60000000
   O     63.51000000    41.42000000    17.47000000
   H     64.16000000    43.33000000    13.69000000
   H     63.87000000    40.84000000    15.01000000
   H     62.60000000    42.11000000    15.00000000
   N     64.94000000    43.01000000    16.96000000
   C     65.37000000    43.40000000    18.29000000
   C     65.33000000    44.91000000    18.45000000
   O     65.43000000    45.66000000    17.48000000
   C     66.71000000    42.74000000    18.60000000
   C     66.85000000    41.25000000    18.26000000
   O     67.77000000    43.41000000    17.96000000
   H     65.42000000    43.43000000    16.18000000
   H     64.66000000    42.97000000    18.99000000
   H     66.81000000    42.86000000    19.68000000
   H     68.44000000    42.79000000    17.65000000
   H     67.09000000    41.14000000    17.20000000
   H     67.56000000    40.67000000    18.84000000
   H     65.89000000    40.73000000    18.35000000
   N     65.18000000    45.44000000    19.67000000
   C     65.02000000    46.85000000    19.98000000
   C     66.42000000    47.41000000    20.20000000
   O     67.04000000    46.98000000    21.17000000
   C     63.98000000    47.09000000    21.08000000
   C     62.63000000    46.44000000    20.81000000
   C     63.82000000    48.60000000    21.19000000
   C     61.62000000    46.46000000    21.95000000
   H     64.98000000    44.79000000    20.41000000
   H     64.68000000    47.32000000    19.06000000
   H     64.36000000    46.80000000    22.06000000
   H     62.84000000    45.37000000    20.78000000
   H     62.12000000    46.74000000    19.90000000
   H     64.79000000    49.06000000    21.41000000
   H     63.31000000    48.95000000    20.29000000
   H     63.18000000    48.79000000    22.05000000
   H     62.11000000    46.33000000    22.92000000
   H     61.19000000    47.45000000    22.10000000
   H     60.83000000    45.72000000    21.82000000
   N     66.90000000    48.36000000    19.40000000
   C     68.03000000    49.18000000    19.79000000
   C     67.60000000    50.42000000    20.55000000
   O     66.41000000    50.73000000    20.42000000
   C     68.93000000    49.49000000    18.59000000
   C     68.17000000    49.82000000    17.31000000
   O     68.04000000    51.02000000    16.98000000
   O     67.74000000    48.92000000    16.56000000
   H     66.24000000    48.77000000    18.75000000
   H     68.64000000    48.65000000    20.52000000
   H     69.52000000    48.61000000    18.34000000
   H     69.66000000    50.26000000    18.82000000
   N     68.42000000    51.14000000    21.31000000
   C     67.93000000    52.09000000    22.29000000
   C     67.24000000    53.31000000    21.70000000
   O     66.35000000    53.82000000    22.37000000
   C     69.04000000    52.51000000    23.25000000
   C     68.62000000    53.59000000    24.22000000
   C     69.42000000    54.72000000    24.38000000
   C     67.46000000    53.40000000    24.98000000
   C     69.00000000    55.65000000    25.33000000
   C     67.01000000    54.36000000    25.90000000
   C     67.84000000    55.46000000    26.10000000
   H     69.36000000    50.83000000    21.51000000
   H     67.17000000    51.56000000    22.87000000
   H     69.87000000    52.94000000    22.70000000
   H     69.26000000    51.60000000    23.81000000
   H     70.24000000    54.86000000    23.69000000
   H     66.85000000    52.51000000    24.89000000
   H     69.46000000    56.62000000    25.46000000
   H     66.16000000    54.08000000    26.50000000
   H     67.62000000    56.25000000    26.80000000
   N     67.61000000    53.83000000    20.53000000
   C     66.85000000    54.94000000    19.98000000
   C     65.40000000    54.60000000    19.67000000
   O     64.55000000    55.48000000    19.72000000
   C     67.58000000    55.44000000    18.73000000
   C     69.01000000    55.10000000    19.14000000
   C     68.90000000    53.76000000    19.86000000
   H     66.95000000    55.75000000    20.70000000
   H     67.22000000    54.89000000    17.86000000
   H     67.40000000    56.51000000    18.62000000
   H     69.74000000    55.03000000    18.34000000
   H     69.40000000    55.83000000    19.85000000
   H     68.95000000    52.90000000    19.18000000
   H     69.69000000    53.77000000    20.61000000
   N     65.11000000    53.33000000    19.37000000
   C     63.75000000    52.89000000    19.14000000
   C     62.95000000    52.91000000    20.44000000
   O     61.77000000    53.25000000    20.42000000
   C     63.70000000    51.50000000    18.51000000
   C     64.51000000    51.50000000    17.21000000
   C     64.67000000    50.12000000    16.59000000
   O     64.98000000    49.93000000    15.39000000
   O     64.68000000    49.10000000    17.31000000
   H     65.84000000    52.63000000    19.29000000
   H     63.20000000    53.50000000    18.43000000
   H     62.65000000    51.29000000    18.32000000
   H     64.07000000    50.77000000    19.22000000
   H     65.48000000    51.93000000    17.44000000
   H     63.87000000    52.08000000    16.54000000
   N     63.60000000    52.57000000    21.56000000
   C     63.09000000    52.62000000    22.91000000
   H     62.06600000    52.24600000    22.92500000
   H     63.71200000    52.00100000    23.55700000
   H     63.10500000    53.65000000    23.26700000
   H     64.52000000    52.16000000    21.48000000
  Ca     65.83000000    47.44000000    15.62000000
   O     63.19000000    47.15000000    16.96000000
   H     63.59000000    47.97000000    17.26000000
   H     62.53000000    46.95000000    17.63000000
   O     68.32000000    45.96000000    17.05000000
   H     68.18000000    45.03000000    17.24000000
   H     68.31000000    46.38000000    17.91000000

Ca 1.70



