%chk=loop3.cluster75.chk
%nprocshared=48
%mem=10GB
%nosave
#b3lyp/svp scf=(tight,noincore) Test 
#IOP(5/87=12) Density=Current Pop=(MK,readradii) iop(6/33=2) iop(6/42=6)

loop3.cluster75 

   0  1 
   C    101.67000000    44.25000000    12.86000000
   C    101.64000000    45.56000000    12.09000000
   O    100.59000000    46.18000000    11.99000000
   H    101.84000000    44.45400000    13.91700000
   H    100.71700000    43.73500000    12.73900000
   H    102.47400000    43.62200000    12.47800000
   N    102.76000000    46.14000000    11.65000000
   C    102.82000000    47.29000000    10.78000000
   C    102.72000000    46.80000000     9.34000000
   O    103.03000000    45.63000000     9.13000000
   C    104.12000000    48.08000000    10.95000000
   C    105.25000000    47.09000000    11.14000000
   O    105.54000000    46.65000000    12.28000000
   O    105.90000000    46.67000000    10.15000000
   H    103.63000000    45.62000000    11.73000000
   H    102.04000000    48.04000000    10.88000000
   H    104.06000000    48.61000000    11.90000000
   H    104.30000000    48.81000000    10.16000000
   N    102.31000000    47.64000000     8.39000000
   C    102.12000000    47.20000000     7.02000000
   C    101.11000000    46.05000000     6.92000000
   O    101.17000000    45.23000000     6.01000000
   C    101.59000000    48.40000000     6.24000000
   C    101.45000000    48.23000000     4.73000000
   C    101.32000000    49.56000000     4.01000000
   C    101.51000000    49.25000000     2.53000000
   N    100.79000000    50.19000000     1.66000000
   H    102.03000000    48.58000000     8.63000000
   H    102.98000000    46.87000000     6.44000000
   H    102.20000000    49.28000000     6.42000000
   H    100.60000000    48.57000000     6.67000000
   H    100.71000000    47.46000000     4.53000000
   H    102.41000000    47.81000000     4.40000000
   H    102.09000000    50.23000000     4.38000000
   H    100.32000000    49.92000000     4.26000000
   H    101.27000000    48.22000000     2.27000000
   H    102.59000000    49.36000000     2.42000000
   H    101.29000000    51.06000000     1.53000000
   H    100.39000000    49.77000000     0.83000000
   H     99.93000000    50.50000000     2.10000000
   N    100.22000000    46.00000000     7.91000000
   C     98.93000000    45.35000000     7.77000000
   C     97.82000000    46.09000000     7.04000000
   O     96.87000000    45.45000000     6.58000000
   C     98.45000000    44.92000000     9.15000000
   C     98.04000000    46.11000000    10.02000000
   O     97.23000000    45.94000000    10.95000000
   O     98.60000000    47.21000000     9.87000000
   H    100.38000000    46.60000000     8.71000000
   H     99.11000000    44.47000000     7.15000000
   H     99.25000000    44.34000000     9.61000000
   H     97.54000000    44.33000000     9.01000000
   N     98.02000000    47.36000000     6.71000000
   C     97.17000000    47.94000000     5.68000000
   C     97.41000000    49.44000000     5.58000000
   O     98.21000000    50.06000000     6.29000000
   H     98.78000000    47.88000000     7.12000000
   H     96.13000000    47.77000000     5.97000000
   H     97.36000000    47.47000000     4.72000000
   N     96.58000000    50.13000000     4.79000000
   C     95.65000000    49.69000000     3.77000000
   C     94.33000000    50.35000000     4.13000000
   O     94.25000000    51.56000000     4.33000000
   C     96.13000000    49.87000000     2.33000000
   C     97.41000000    49.12000000     1.99000000
   N     97.72000000    48.99000000     0.70000000
   O     98.15000000    48.54000000     2.78000000
   H     96.91000000    51.08000000     4.71000000
   H     95.42000000    48.62000000     3.83000000
   H     96.27000000    50.93000000     2.12000000
   H     95.37000000    49.56000000     1.62000000
   H     97.13000000    49.43000000     0.02000000
   H     98.65000000    48.63000000     0.53000000
   N     93.18000000    49.68000000     4.05000000
   C     92.90000000    48.40000000     3.43000000
   C     92.92000000    47.17000000     4.33000000
   O     93.73000000    47.19000000     5.26000000
   H     92.49000000    50.06000000     4.68000000
   H     93.71000000    48.22000000     2.73000000
   H     91.92000000    48.44000000     2.95000000
   N     92.05000000    46.21000000     4.01000000
   C     91.99000000    44.89000000     4.61000000
   C     92.06000000    43.90000000     3.46000000
   O     91.17000000    43.08000000     3.24000000
   C     90.93000000    44.74000000     5.69000000
   C     90.92000000    45.79000000     6.78000000
   C     91.82000000    45.64000000     7.84000000
   C     90.01000000    46.85000000     6.70000000
   C     91.88000000    46.64000000     8.82000000
   C     90.06000000    47.79000000     7.74000000
   C     91.03000000    47.76000000     8.77000000
   O     91.08000000    48.73000000     9.73000000
   H     91.45000000    46.43000000     3.23000000
   H     92.91000000    44.71000000     5.16000000
   H     90.87000000    43.75000000     6.16000000
   H     90.01000000    44.72000000     5.12000000
   H     92.55000000    44.86000000     7.74000000
   H     89.30000000    46.89000000     5.89000000
   H     92.56000000    46.53000000     9.65000000
   H     89.37000000    48.61000000     7.66000000
   H     90.53000000    49.49000000     9.53000000
   N     93.08000000    44.03000000     2.61000000
   C     93.15000000    43.44000000     1.29000000
   C     93.25000000    41.93000000     1.20000000
   O     93.46000000    41.49000000     0.07000000
   C     94.17000000    44.18000000     0.43000000
   C     93.85000000    45.67000000     0.44000000
   C     95.61000000    43.88000000     0.84000000
   C     94.77000000    46.53000000    -0.44000000
   H     93.83000000    44.64000000     2.90000000
   H     92.22000000    43.66000000     0.76000000
   H     94.11000000    43.83000000    -0.60000000
   H     93.93000000    46.15000000     1.41000000
   H     92.87000000    45.81000000    -0.01000000
   H     95.86000000    44.25000000     1.83000000
   H     95.75000000    42.80000000     0.86000000
   H     96.34000000    44.28000000     0.14000000
   H     94.80000000    46.05000000    -1.41000000
   H     94.38000000    47.55000000    -0.43000000
   H     95.81000000    46.58000000    -0.12000000
   N     93.16000000    41.21000000     2.31000000
   C     93.38000000    39.77000000     2.28000000
   C     94.87000000    39.48000000     2.22000000
   O     95.22000000    38.40000000     1.74000000
   C     92.60000000    39.17000000     3.45000000
   O     93.40000000    39.01000000     4.60000000
   H     92.81000000    41.68000000     3.14000000
   H     92.87000000    39.43000000     1.37000000
   H     92.22000000    38.24000000     3.03000000
   H     91.69000000    39.72000000     3.72000000
   H     93.81000000    39.86000000     4.78000000
   N     95.76000000    40.33000000     2.72000000
   C     97.18000000    40.10000000     2.93000000
   C     97.60000000    39.75000000     4.36000000
   O     98.33000000    40.47000000     5.05000000
   C     97.94000000    41.27000000     2.31000000
   H     95.38000000    41.20000000     3.05000000
   H     97.34000000    39.17000000     2.39000000
   H     98.18000000    42.04000000     3.04000000
   H     98.85000000    40.80000000     1.93000000
   H     97.46000000    41.73000000     1.45000000
   N     96.84000000    38.79000000     4.88000000
   C     96.90000000    38.14000000     6.18000000
   C     96.83000000    39.07000000     7.39000000
   O     97.34000000    38.80000000     8.47000000
   C     98.02000000    37.11000000     6.27000000
   H     96.16000000    38.42000000     4.23000000
   H     95.95000000    37.65000000     6.40000000
   H     97.95000000    36.56000000     7.21000000
   H     97.72000000    36.34000000     5.57000000
   H     99.00000000    37.57000000     6.11000000
   N     96.29000000    40.28000000     7.22000000
   C     95.86000000    41.17000000     8.28000000
   C     94.60000000    40.62000000     8.93000000
   O     94.53000000    40.62000000    10.15000000
   C     95.58000000    42.61000000     7.88000000
   C     94.64000000    43.14000000     6.80000000
   C     94.72000000    42.53000000     5.41000000
   O     94.18000000    41.41000000     5.25000000
   O     95.32000000    43.15000000     4.50000000
   H     95.86000000    40.40000000     6.32000000
   H     96.63000000    41.28000000     9.05000000
   H     96.58000000    42.90000000     7.57000000
   H     95.29000000    43.20000000     8.76000000
   H     94.62000000    44.23000000     6.71000000
   H     93.65000000    42.92000000     7.20000000
   N     93.56000000    40.20000000     8.21000000
   C     92.46000000    39.37000000     8.67000000
   H     91.58900000    39.53900000     8.03700000
   H     92.74900000    38.32000000     8.61700000
   H     92.21500000    39.62800000     9.70000000
   H     93.72000000    40.30000000     7.21000000
  Ca     97.02000000    48.78000000    11.72000000
   O     98.43000000    47.23000000    13.36000000
   H     98.76000000    47.20000000    14.26000000
   H     99.13000000    46.85000000    12.83000000
   O     97.69000000    49.68000000     9.32000000
   H     97.72000000    50.36000000     8.64000000
   H     98.33000000    49.04000000     9.04000000
   O     94.93000000    47.72000000    10.12000000
   H     94.12000000    47.71000000    10.62000000
   H     95.21000000    46.81000000    10.09000000
   O     99.75400000    49.27000000    11.24000000
   H     99.96400000    48.42000000    10.85000000
   H    100.06400000    49.90000000    10.60000000
   O     95.23000000    47.16000000    13.00000000
   H     94.29000000    47.06000000    12.84000000
   H     95.39000000    46.61000000    13.77000000
   O     95.30000000    50.84000000    11.03000000
   H     95.06000000    51.53000000    11.64000000
   H     95.67000000    51.29000000    10.28000000

Ca 1.70



