%chk=loop3.cluster146.chk
%nprocshared=48
%mem=10GB
%nosave
#b3lyp/svp scf=(tight,noincore) Test 
#IOP(5/87=12) Density=Current Pop=(MK,readradii) iop(6/33=2) iop(6/42=6)

loop3.cluster146 

   0  1 
   C     56.36000000    57.34000000    45.18000000
   C     56.31000000    57.86000000    46.61000000
   O     55.21000000    58.15000000    47.07000000
   H     57.30600000    57.62900000    44.72200000
   H     56.27700000    56.25300000    45.18500000
   H     55.53500000    57.76600000    44.60900000
   N     57.44000000    57.94000000    47.32000000
   C     57.66000000    58.22000000    48.73000000
   C     56.93000000    59.38000000    49.40000000
   O     57.61000000    60.17000000    50.05000000
   C     57.60000000    56.94000000    49.57000000
   C     58.36000000    55.71000000    49.10000000
   O     58.05000000    55.32000000    47.95000000
   O     59.18000000    55.13000000    49.83000000
   H     58.24000000    57.74000000    46.75000000
   H     58.73000000    58.38000000    48.74000000
   H     56.55000000    56.66000000    49.66000000
   H     58.01000000    57.24000000    50.54000000
   N     55.60000000    59.43000000    49.39000000
   C     54.81000000    60.48000000    50.00000000
   C     55.15000000    60.62000000    51.48000000
   O     55.27000000    61.77000000    51.89000000
   C     53.31000000    60.23000000    49.80000000
   C     52.63000000    59.20000000    50.69000000
   C     53.01000000    57.76000000    50.40000000
   C     52.48000000    56.71000000    51.37000000
   N     53.09000000    56.54000000    52.69000000
   H     55.13000000    58.82000000    48.74000000
   H     55.18000000    61.41000000    49.57000000
   H     53.15000000    59.96000000    48.76000000
   H     52.74000000    61.15000000    49.94000000
   H     51.54000000    59.25000000    50.67000000
   H     52.87000000    59.30000000    51.75000000
   H     54.09000000    57.62000000    50.35000000
   H     52.56000000    57.51000000    49.43000000
   H     52.54000000    55.80000000    50.76000000
   H     51.44000000    56.98000000    51.54000000
   H     53.95000000    56.02000000    52.59000000
   H     53.19000000    57.43000000    53.18000000
   H     52.45000000    56.14000000    53.36000000
   N     55.40000000    59.53000000    52.21000000
   C     56.09000000    59.44000000    53.47000000
   C     56.36000000    57.96000000    53.74000000
   O     55.77000000    57.15000000    53.04000000
   C     55.39000000    60.08000000    54.66000000
   C     54.00000000    59.61000000    55.06000000
   O     53.38000000    60.26000000    55.92000000
   O     53.37000000    58.74000000    54.42000000
   H     55.28000000    58.65000000    51.73000000
   H     57.08000000    59.87000000    53.29000000
   H     55.36000000    61.14000000    54.42000000
   H     56.05000000    59.89000000    55.51000000
   N     57.13000000    57.70000000    54.80000000
   C     57.29000000    56.33000000    55.23000000
   C     56.45000000    55.86000000    56.41000000
   O     55.82000000    56.72000000    57.01000000
   H     57.41000000    58.46000000    55.41000000
   H     58.34000000    56.15000000    55.49000000
   H     56.98000000    55.68000000    54.41000000
   N     56.46000000    54.54000000    56.61000000
   C     55.52000000    53.83000000    57.46000000
   C     56.28000000    52.84000000    58.33000000
   O     55.77000000    51.74000000    58.52000000
   C     54.64000000    53.06000000    56.48000000
   C     53.79000000    54.03000000    55.66000000
   N     53.04000000    54.97000000    56.23000000
   O     53.73000000    53.95000000    54.43000000
   H     57.09000000    54.01000000    56.02000000
   H     54.99000000    54.55000000    58.08000000
   H     53.95000000    52.42000000    57.02000000
   H     55.17000000    52.52000000    55.69000000
   H     53.00000000    54.97000000    57.24000000
   H     52.54000000    55.62000000    55.63000000
   N     57.46000000    53.13000000    58.88000000
   C     58.28000000    52.10000000    59.50000000
   C     58.36000000    50.95000000    58.50000000
   O     58.40000000    51.20000000    57.30000000
   H     57.75000000    54.10000000    58.84000000
   H     57.89000000    51.83000000    60.48000000
   H     59.26000000    52.45000000    59.80000000
   N     58.34000000    49.72000000    59.02000000
   C     58.34000000    48.46000000    58.30000000
   C     57.06000000    48.17000000    57.53000000
   O     56.71000000    47.02000000    57.27000000
   C     59.68000000    48.24000000    57.60000000
   C     60.80000000    48.43000000    58.59000000
   C     60.89000000    47.62000000    59.73000000
   C     61.67000000    49.51000000    58.37000000
   C     61.90000000    47.89000000    60.66000000
   C     62.73000000    49.63000000    59.27000000
   C     62.89000000    48.87000000    60.45000000
   O     63.85000000    49.01000000    61.40000000
   H     58.10000000    49.74000000    60.00000000
   H     58.32000000    47.67000000    59.05000000
   H     59.77000000    48.93000000    56.76000000
   H     59.80000000    47.21000000    57.28000000
   H     60.14000000    46.86000000    59.92000000
   H     61.53000000    50.10000000    57.47000000
   H     61.98000000    47.14000000    61.43000000
   H     63.36000000    50.51000000    59.32000000
   H     64.49000000    49.64000000    61.07000000
   N     56.46000000    49.19000000    56.90000000
   C     55.35000000    49.07000000    55.98000000
   C     54.05000000    48.65000000    56.65000000
   O     53.09000000    49.41000000    56.56000000
   C     55.69000000    48.36000000    54.67000000
   C     57.10000000    48.72000000    54.21000000
   C     54.59000000    48.63000000    53.64000000
   C     57.29000000    50.12000000    53.63000000
   H     56.96000000    50.06000000    56.86000000
   H     55.24000000    50.11000000    55.66000000
   H     55.71000000    47.29000000    54.89000000
   H     57.26000000    47.95000000    53.45000000
   H     57.87000000    48.56000000    54.96000000
   H     53.74000000    47.99000000    53.87000000
   H     54.18000000    49.62000000    53.81000000
   H     54.93000000    48.42000000    52.63000000
   H     58.28000000    50.28000000    53.20000000
   H     56.39000000    50.40000000    53.08000000
   H     57.24000000    50.73000000    54.53000000
   N     53.89000000    47.48000000    57.26000000
   C     52.73000000    46.97000000    57.95000000
   C     51.51000000    47.00000000    57.04000000
   O     50.39000000    47.21000000    57.51000000
   C     53.03000000    45.55000000    58.44000000
   O     53.77000000    44.78000000    57.52000000
   H     54.68000000    46.85000000    57.14000000
   H     52.56000000    47.51000000    58.88000000
   H     52.08000000    45.07000000    58.67000000
   H     53.64000000    45.71000000    59.33000000
   H     54.53000000    44.36000000    57.92000000
   N     51.63000000    46.58000000    55.78000000
   C     50.79000000    46.74000000    54.62000000
   C     50.13000000    48.11000000    54.53000000
   O     49.03000000    48.23000000    53.99000000
   C     49.83000000    45.55000000    54.57000000
   H     52.48000000    46.06000000    55.63000000
   H     51.45000000    46.67000000    53.76000000
   H     49.31000000    45.53000000    55.53000000
   H     49.19000000    45.66000000    53.70000000
   H     50.42000000    44.63000000    54.54000000
   N     50.72000000    49.25000000    54.89000000
   C     50.08000000    50.55000000    54.99000000
   C     50.11000000    51.35000000    53.70000000
   O     51.14000000    51.31000000    53.04000000
   C     50.65000000    51.27000000    56.21000000
   H     51.66000000    49.09000000    55.24000000
   H     49.01000000    50.39000000    55.10000000
   H     50.56000000    50.61000000    57.07000000
   H     51.67000000    51.55000000    55.95000000
   H     50.05000000    52.15000000    56.48000000
   N     49.11000000    52.22000000    53.55000000
   C     49.13000000    53.27000000    52.55000000
   C     49.25000000    52.73000000    51.14000000
   O     49.27000000    53.54000000    50.22000000
   C     50.02000000    54.45000000    52.94000000
   C     49.42000000    55.08000000    54.19000000
   C     49.98000000    56.46000000    54.52000000
   O     49.45000000    57.48000000    54.03000000
   O     51.19000000    56.57000000    54.78000000
   H     48.33000000    52.11000000    54.18000000
   H     48.09000000    53.62000000    52.52000000
   H     49.84000000    55.22000000    52.20000000
   H     51.07000000    54.19000000    53.06000000
   H     49.65000000    54.44000000    55.05000000
   H     48.35000000    55.17000000    54.02000000
   N     49.43000000    51.44000000    50.81000000
   C     49.74000000    50.97000000    49.47000000
   H     50.77600000    50.63200000    49.43500000
   H     49.07900000    50.14200000    49.21300000
   H     49.59900000    51.78300000    48.75800000
   H     49.57000000    50.73000000    51.51000000
  Ca     50.96000000    59.28000000    55.70000000
   O     49.16000000    58.06000000    57.22000000
   H     48.38000000    58.35000000    57.69000000
   H     49.36000000    57.20000000    57.59000000
   O     52.14000000    58.25000000    57.84000000
   H     51.66000000    57.96000000    58.61000000
   H     53.06000000    58.09000000    58.05000000
   O     48.57000000    60.52000000    55.18000000
   H     47.97000000    60.31000000    55.90000000
   H     48.14000000    61.24000000    54.72000000
   O     50.22000000    60.85000000    57.68000000
   H     50.43000000    60.61000000    58.58000000
   H     49.86000000    61.74000000    57.74000000
   O     51.05000000    61.20000000    53.98000000
   H     51.89000000    61.65000000    53.87000000
   H     50.67000000    61.17000000    53.10000000

Ca 1.70



