%chk=loop2.cluster15.chk
%nprocshared=48
%mem=10GB
%nosave
#b3lyp/svp scf=(tight,noincore) Test 
#IOP(5/87=12) Density=Current Pop=(MK,readradii) iop(6/33=2) iop(6/42=6)

loop2.cluster15 

   -2  1 
   C     66.30000000    88.85000000    98.78000000
   C     67.56000000    88.53000000    99.57000000
   O     67.43000000    87.80000000   100.54000000
   H     65.53300000    89.22500000    99.45700000
   H     66.52400000    89.60800000    98.02900000
   H     65.93900000    87.94600000    98.28800000
   N     68.71000000    89.19000000    99.42000000
   C     69.80000000    89.14000000   100.37000000
   C     69.48000000    89.79000000   101.71000000
   O     69.88000000    89.29000000   102.76000000
   C     71.06000000    89.64000000    99.68000000
   C     72.29000000    89.47000000   100.55000000
   O     72.67000000    90.41000000   101.28000000
   O     72.74000000    88.30000000   100.48000000
   H     68.92000000    89.69000000    98.57000000
   H     69.95000000    88.08000000   100.57000000
   H     70.91000000    90.70000000    99.48000000
   H     71.26000000    89.12000000    98.75000000
   N     68.74000000    90.90000000   101.66000000
   C     68.03000000    91.56000000   102.74000000
   C     67.20000000    90.57000000   103.53000000
   O     67.13000000    90.55000000   104.76000000
   C     69.06000000    92.38000000   103.50000000
   H     68.78000000    91.47000000   100.82000000
   H     67.34000000    92.33000000   102.39000000
   H     68.60000000    92.77000000   104.41000000
   H     69.93000000    91.81000000   103.84000000
   H     69.46000000    93.21000000   102.91000000
   N     66.46000000    89.65000000   102.90000000
   C     65.77000000    88.61000000   103.63000000
   C     66.57000000    87.70000000   104.55000000
   O     66.16000000    87.28000000   105.63000000
   C     64.50000000    89.19000000   104.27000000
   C     63.72000000    90.19000000   103.42000000
   O     63.17000000    91.18000000   103.94000000
   O     63.51000000    90.07000000   102.20000000
   H     66.28000000    89.78000000   101.92000000
   H     65.40000000    87.86000000   102.93000000
   H     64.81000000    89.63000000   105.21000000
   H     63.84000000    88.35000000   104.46000000
   N     67.82000000    87.48000000   104.13000000
   C     68.89000000    86.89000000   104.90000000
   C     68.99000000    85.37000000   104.88000000
   O     68.29000000    84.76000000   104.07000000
   H     68.00000000    87.82000000   103.20000000
   H     68.78000000    87.14000000   105.96000000
   H     69.87000000    87.26000000   104.59000000
   N     69.71000000    84.81000000   105.85000000
   C     69.73000000    83.42000000   106.26000000
   C     69.94000000    82.40000000   105.15000000
   O     69.27000000    81.38000000   104.98000000
   C     68.49000000    83.10000000   107.09000000
   C     68.27000000    84.20000000   108.12000000
   N     67.13000000    84.89000000   108.07000000
   O     69.12000000    84.33000000   108.99000000
   H     70.26000000    85.37000000   106.48000000
   H     70.58000000    83.41000000   106.93000000
   H     68.65000000    82.16000000   107.62000000
   H     67.60000000    83.06000000   106.46000000
   H     66.46000000    84.80000000   107.32000000
   H     67.07000000    85.70000000   108.67000000
   N     70.90000000    82.71000000   104.27000000
   C     71.39000000    81.81000000   103.25000000
   C     70.54000000    81.84000000   101.98000000
   O     71.02000000    81.34000000   100.97000000
   H     71.38000000    83.57000000   104.48000000
   H     71.29000000    80.78000000   103.58000000
   H     72.46000000    81.99000000   103.10000000
   N     69.40000000    82.53000000   101.99000000
   C     68.65000000    82.85000000   100.79000000
   C     67.37000000    82.04000000   100.77000000
   O     66.89000000    81.57000000   101.80000000
   C     68.37000000    84.35000000   100.88000000
   C     69.69000000    85.11000000   101.00000000
   O     67.70000000    84.81000000    99.73000000
   H     69.03000000    82.88000000   102.86000000
   H     69.21000000    82.60000000    99.89000000
   H     67.79000000    84.53000000   101.78000000
   H     67.49000000    85.74000000    99.78000000
   H     69.41000000    86.17000000   101.06000000
   H     70.24000000    84.94000000   101.93000000
   H     70.21000000    84.95000000   100.06000000
   N     66.73000000    81.83000000    99.61000000
   C     65.39000000    81.33000000    99.40000000
   C     64.47000000    82.03000000   100.39000000
   O     64.63000000    83.23000000   100.60000000
   C     64.90000000    81.50000000    97.97000000
   C     65.06000000    82.90000000    97.37000000
   C     65.45000000    80.35000000    97.14000000
   C     64.31000000    83.10000000    96.05000000
   H     67.19000000    82.29000000    98.84000000
   H     65.36000000    80.26000000    99.63000000
   H     63.81000000    81.44000000    97.98000000
   H     66.11000000    83.05000000    97.12000000
   H     64.76000000    83.71000000    98.03000000
   H     65.25000000    79.37000000    97.57000000
   H     65.07000000    80.39000000    96.12000000
   H     66.53000000    80.35000000    96.94000000
   H     63.24000000    83.00000000    96.18000000
   H     64.61000000    84.08000000    95.68000000
   H     64.71000000    82.37000000    95.34000000
   N     63.49000000    81.39000000   101.03000000
   C     62.89000000    81.88000000   102.25000000
   C     63.16000000    81.01000000   103.47000000
   O     62.22000000    80.53000000   104.10000000
   C     61.42000000    82.09000000   101.90000000
   C     60.58000000    82.61000000   103.05000000
   O     61.11000000    83.22000000   104.01000000
   O     59.34000000    82.55000000   103.09000000
   H     63.25000000    80.44000000   100.78000000
   H     63.28000000    82.88000000   102.47000000
   H     61.07000000    81.13000000   101.52000000
   H     61.45000000    82.86000000   101.13000000
   N     64.41000000    80.60000000   103.69000000
   C     64.66000000    79.86000000   104.91000000
   C     64.38000000    78.37000000   104.85000000
   O     63.74000000    77.95000000   105.81000000
   C     66.08000000    80.26000000   105.33000000
   C     66.61000000    79.44000000   106.49000000
   C     67.41000000    78.32000000   106.24000000
   C     66.40000000    79.84000000   107.81000000
   C     68.06000000    77.63000000   107.28000000
   C     67.09000000    79.14000000   108.81000000
   C     67.98000000    78.09000000   108.60000000
   H     65.22000000    80.94000000   103.18000000
   H     63.95000000    80.18000000   105.67000000
   H     66.14000000    81.32000000   105.60000000
   H     66.77000000    80.07000000   104.51000000
   H     67.49000000    77.98000000   105.22000000
   H     65.72000000    80.63000000   108.12000000
   H     68.68000000    76.79000000   107.03000000
   H     66.92000000    79.41000000   109.84000000
   H     68.54000000    77.62000000   109.40000000
   N     64.87000000    77.49000000   103.97000000
   C     65.71000000    77.74000000   102.82000000
   C     64.86000000    77.78000000   101.56000000
   O     65.38000000    77.66000000   100.45000000
   C     66.72000000    76.60000000   102.80000000
   C     65.99000000    75.45000000   103.48000000
   C     64.86000000    76.08000000   104.29000000
   H     66.16000000    78.74000000   102.82000000
   H     67.18000000    76.38000000   101.84000000
   H     67.59000000    76.89000000   103.39000000
   H     65.51000000    74.78000000   102.76000000
   H     66.64000000    74.86000000   104.13000000
   H     63.91000000    75.58000000   104.11000000
   H     65.17000000    75.80000000   105.30000000
   N     63.54000000    77.87000000   101.71000000
   C     62.59000000    77.26000000   100.81000000
   C     62.37000000    78.03000000    99.52000000
   O     62.35000000    79.26000000    99.51000000
   C     61.24000000    77.11000000   101.51000000
   C     61.15000000    76.41000000   102.86000000
   C     61.46000000    74.92000000   102.69000000
   O     61.61000000    74.23000000   103.72000000
   O     61.72000000    74.44000000   101.57000000
   H     63.30000000    77.95000000   102.69000000
   H     63.07000000    76.32000000   100.57000000
   H     60.58000000    76.71000000   100.74000000
   H     60.83000000    78.10000000   101.70000000
   H     60.12000000    76.59000000   103.16000000
   H     61.79000000    76.78000000   103.67000000
   N     62.08000000    77.34000000    98.41000000
   C     61.78000000    77.96000000    97.14000000
   H     60.96600000    78.67300000    97.26800000
   H     62.66400000    78.48100000    96.77100000
   H     61.48300000    77.19500000    96.42300000
   H     62.11000000    76.33000000    98.51000000
  Ca     62.45000000    92.33000000   101.53000000
   O     65.11000000    93.03000000   102.22000000
   H     64.83000000    93.93000000   102.42000000
   H     66.03000000    93.01000000   102.45000000
   O     60.24000000    91.79000000   102.72000000
   H     59.41000000    92.25000000   102.87000000
   H     60.11000000    90.92000000   103.11000000
   O     60.80000000    91.86000000    99.66000000
   H     61.11000000    92.02000000    98.77000000
   H     59.88000000    91.59000000    99.55000000
   O     62.21000000    94.41000000   103.49000000
   H     62.43000000    95.34000000   103.44000000
   H     61.58000000    94.36000000   104.22000000
   O     60.79000000    94.44000000   100.96000000
   H     60.44000000    95.07000000   101.59000000
   H     60.50000000    94.76000000   100.11000000

Ca 1.70



