%chk=loop4.cluster145.chk
%nprocshared=48
%mem=10GB
%nosave
#b3lyp/svp scf=(tight,noincore) Test 
#IOP(5/87=12) Density=Current Pop=(MK,readradii) iop(6/33=2) iop(6/42=6)

loop4.cluster145 

   -3  1 
   C     98.39000000    80.99000000    36.35000000
   C     99.67000000    80.15000000    36.42000000
   O     99.83000000    79.03000000    35.94000000
   H     97.60000000    80.49500000    36.91500000
   H     98.57800000    81.97600000    36.77600000
   H     98.08000000    81.09600000    35.31000000
   N    100.69000000    80.75000000    37.03000000
   C    101.99000000    80.28000000    37.46000000
   C    102.85000000    79.44000000    36.52000000
   O    103.68000000    78.63000000    36.92000000
   C    101.94000000    79.77000000    38.90000000
   C    101.19000000    78.45000000    39.08000000
   O    100.83000000    78.04000000    40.21000000
   O    101.08000000    77.69000000    38.10000000
   H    100.41000000    81.63000000    37.44000000
   H    102.66000000    81.13000000    37.60000000
   H    101.55000000    80.56000000    39.54000000
   H    102.95000000    79.57000000    39.26000000
   N    102.63000000    79.63000000    35.21000000
   C    103.30000000    78.86000000    34.19000000
   C    103.17000000    77.34000000    34.28000000
   O    102.24000000    76.75000000    34.81000000
   C    102.99000000    79.38000000    32.78000000
   C    103.47000000    80.82000000    32.61000000
   C    101.49000000    79.26000000    32.55000000
   C    103.43000000    81.21000000    31.14000000
   H    101.83000000    80.18000000    34.92000000
   H    104.35000000    79.04000000    34.39000000
   H    103.56000000    78.75000000    32.09000000
   H    104.47000000    81.10000000    32.94000000
   H    102.72000000    81.41000000    33.15000000
   H    100.96000000    80.17000000    32.84000000
   H    101.32000000    79.03000000    31.50000000
   H    101.02000000    78.46000000    33.12000000
   H    103.54000000    82.27000000    30.89000000
   H    104.18000000    80.67000000    30.57000000
   H    102.46000000    81.02000000    30.69000000
   N    104.31000000    76.73000000    33.94000000
   C    104.42000000    75.31000000    34.16000000
   C    104.73000000    74.89000000    35.59000000
   O    105.31000000    75.62000000    36.39000000
   C    105.47000000    74.84000000    33.16000000
   C    106.87000000    75.39000000    33.41000000
   O    107.13000000    76.53000000    32.95000000
   O    107.59000000    74.75000000    34.20000000
   H    105.10000000    77.20000000    33.51000000
   H    103.50000000    74.91000000    33.74000000
   H    105.17000000    75.08000000    32.14000000
   H    105.56000000    73.76000000    33.30000000
   N    104.21000000    73.74000000    36.03000000
   C    103.40000000    72.82000000    35.26000000
   C    101.98000000    73.30000000    34.96000000
   O    101.54000000    74.21000000    35.66000000
   H    104.34000000    73.51000000    37.00000000
   H    103.33000000    71.88000000    35.80000000
   H    103.97000000    72.74000000    34.34000000
   N    101.28000000    72.77000000    33.96000000
   C    101.80000000    71.81000000    33.01000000
   C    101.11000000    72.09000000    31.68000000
   O     99.88000000    72.05000000    31.60000000
   C    101.46000000    70.37000000    33.39000000
   C    102.23000000    69.42000000    32.48000000
   O    103.40000000    69.18000000    32.84000000
   O    101.78000000    69.09000000    31.36000000
   H    100.30000000    73.01000000    33.89000000
   H    102.87000000    71.91000000    32.81000000
   H    100.39000000    70.17000000    33.33000000
   H    101.74000000    70.22000000    34.43000000
   N    101.80000000    72.41000000    30.59000000
   C    103.23000000    72.53000000    30.36000000
   C    103.73000000    72.98000000    29.00000000
   O    104.94000000    72.97000000    28.77000000
   H    101.18000000    72.86000000    29.93000000
   H    103.64000000    71.52000000    30.46000000
   H    103.69000000    73.20000000    31.09000000
   N    102.79000000    73.54000000    28.24000000
   C    102.94000000    73.94000000    26.85000000
   C    102.29000000    75.28000000    26.56000000
   O    101.53000000    75.39000000    25.59000000
   C    102.50000000    72.86000000    25.87000000
   C    103.33000000    71.59000000    26.04000000
   C    102.88000000    70.53000000    25.04000000
   N    103.43000000    69.32000000    25.11000000
   O    101.96000000    70.69000000    24.23000000
   H    101.91000000    73.81000000    28.65000000
   H    104.02000000    74.10000000    26.76000000
   H    102.65000000    73.16000000    24.84000000
   H    101.46000000    72.65000000    26.14000000
   H    103.15000000    71.23000000    27.05000000
   H    104.40000000    71.74000000    25.89000000
   H    104.19000000    69.10000000    25.74000000
   H    103.07000000    68.62000000    24.47000000
   N    102.76000000    76.34000000    27.23000000
   C    102.32000000    77.72000000    27.16000000
   C    100.90000000    77.88000000    27.67000000
   O    100.53000000    77.35000000    28.71000000
   C    103.30000000    78.59000000    27.94000000
   C    102.99000000    80.07000000    27.79000000
   C    104.72000000    78.38000000    27.43000000
   H    103.50000000    76.11000000    27.88000000
   H    102.27000000    77.99000000    26.10000000
   H    103.32000000    78.41000000    29.01000000
   H    103.16000000    80.41000000    26.77000000
   H    101.92000000    80.24000000    27.95000000
   H    103.61000000    80.74000000    28.39000000
   H    104.75000000    78.36000000    26.34000000
   H    105.50000000    79.07000000    27.75000000
   H    105.04000000    77.41000000    27.83000000
   N    100.06000000    78.60000000    26.92000000
   C     98.73000000    78.91000000    27.39000000
   C     97.90000000    77.63000000    27.44000000
   O     96.89000000    77.58000000    28.13000000
   C     98.21000000    80.01000000    26.47000000
   C     96.89000000    80.64000000    26.88000000
   N     95.95000000    80.96000000    25.99000000
   O     96.60000000    80.80000000    28.07000000
   H    100.38000000    78.98000000    26.04000000
   H     98.77000000    79.30000000    28.41000000
   H     98.07000000    79.58000000    25.47000000
   H     98.91000000    80.83000000    26.35000000
   H     96.16000000    80.70000000    25.04000000
   H     95.16000000    81.56000000    26.21000000
   N     98.31000000    76.67000000    26.60000000
   C     97.46000000    75.54000000    26.32000000
   C     97.21000000    74.77000000    27.62000000
   O     98.15000000    74.56000000    28.38000000
   C     97.99000000    74.65000000    25.21000000
   C     97.93000000    75.23000000    23.81000000
   C     99.07000000    75.78000000    23.21000000
   C     96.68000000    75.29000000    23.18000000
   C     98.93000000    76.38000000    21.95000000
   C     96.57000000    75.84000000    21.90000000
   C     97.69000000    76.45000000    21.29000000
   O     97.49000000    77.11000000    20.12000000
   H     99.17000000    76.64000000    26.08000000
   H     96.45000000    75.88000000    26.07000000
   H     97.50000000    73.67000000    25.22000000
   H     99.04000000    74.44000000    25.39000000
   H     99.99000000    75.60000000    23.75000000
   H     95.86000000    74.82000000    23.70000000
   H     99.77000000    76.95000000    21.59000000
   H     95.64000000    75.87000000    21.35000000
   H     98.33000000    77.36000000    19.72000000
   N     96.00000000    74.23000000    27.77000000
   C     95.41000000    73.78000000    29.01000000
   C     95.20000000    74.76000000    30.15000000
   O     94.16000000    74.73000000    30.81000000
   C     96.07000000    72.54000000    29.62000000
   C     96.07000000    71.33000000    28.68000000
   C     94.70000000    70.71000000    28.44000000
   O     94.50000000    70.04000000    27.41000000
   O     93.78000000    70.92000000    29.26000000
   H     95.44000000    74.28000000    26.93000000
   H     94.40000000    73.46000000    28.76000000
   H     95.56000000    72.28000000    30.54000000
   H     97.08000000    72.81000000    29.92000000
   H     96.63000000    70.58000000    29.23000000
   H     96.57000000    71.52000000    27.73000000
   N     95.95000000    75.87000000    30.18000000
   C     95.80000000    76.93000000    31.15000000
   C     94.62000000    77.83000000    30.82000000
   O     94.36000000    78.80000000    31.53000000
   C     97.08000000    77.70000000    31.49000000
   C     98.41000000    76.97000000    31.59000000
   C     98.46000000    75.98000000    32.75000000
   O     99.30000000    76.15000000    33.66000000
   O     97.69000000    74.99000000    32.78000000
   H     96.53000000    76.00000000    29.36000000
   H     95.51000000    76.43000000    32.07000000
   H     96.97000000    78.27000000    32.41000000
   H     97.33000000    78.40000000    30.69000000
   H     99.32000000    77.54000000    31.78000000
   H     98.63000000    76.34000000    30.72000000
   N     93.91000000    77.56000000    29.72000000
   C     92.64000000    78.15000000    29.35000000
   H     91.91200000    77.96900000    30.14100000
   H     92.76400000    79.22400000    29.21100000
   H     92.28700000    77.70100000    28.42200000
   H     94.29000000    76.99000000    28.97000000
  Ca     99.95300000    76.41000000    36.06000000
   O     99.72300000    74.79000000    38.34000000
   H    100.04300000    75.03000000    39.21000000
   H     98.98300000    74.21000000    38.51000000
   O     97.46000000    76.78000000    36.79000000
   H     97.10000000    77.25000000    37.54000000
   H     96.74000000    76.23000000    36.48000000
   O     98.24000000    73.94000000    35.37000000
   H     98.15000000    74.37000000    34.51000000
   H     97.41000000    73.48000000    35.49000000

Ca 1.70



