%chk=loop2.cluster235.chk
%nprocshared=48
%mem=10GB
%nosave
#b3lyp/svp scf=(tight,noincore) Test 
#IOP(5/87=12) Density=Current Pop=(MK,readradii) iop(6/33=2) iop(6/42=6)

loop2.cluster235 

   -2  1 
   C     61.71000000    67.39000000    10.19000000
   C     60.48000000    68.09000000    10.75000000
   O     60.66000000    69.13000000    11.38000000
   H     62.54500000    67.51800000    10.87900000
   H     61.50000000    66.32700000    10.06800000
   H     61.96700000    67.82300000     9.22300000
   N     59.27000000    67.61000000    10.48000000
   C     58.04000000    68.07000000    11.09000000
   C     57.92000000    67.44000000    12.47000000
   O     57.84000000    66.22000000    12.61000000
   C     56.83000000    67.77000000    10.21000000
   C     55.46000000    68.12000000    10.77000000
   O     54.43000000    67.74000000    10.17000000
   O     55.34000000    68.91000000    11.73000000
   H     59.31000000    66.81000000     9.87000000
   H     58.06000000    69.15000000    11.25000000
   H     56.69000000    66.71000000    10.00000000
   H     56.84000000    68.19000000     9.20000000
   N     57.87000000    68.28000000    13.51000000
   C     57.78000000    67.85000000    14.89000000
   C     56.44000000    67.20000000    15.20000000
   O     56.22000000    66.43000000    16.13000000
   C     58.14000000    69.06000000    15.75000000
   H     57.84000000    69.27000000    13.34000000
   H     58.55000000    67.08000000    15.05000000
   H     59.17000000    69.32000000    15.48000000
   H     57.40000000    69.83000000    15.58000000
   H     58.17000000    68.68000000    16.78000000
   N     55.43000000    67.47000000    14.36000000
   C     54.08000000    66.97000000    14.52000000
   C     53.79000000    65.78000000    13.61000000
   O     52.71000000    65.20000000    13.69000000
   C     53.15000000    68.17000000    14.34000000
   C     53.71000000    69.48000000    14.87000000
   O     54.46000000    70.16000000    14.14000000
   O     53.23000000    69.83000000    15.97000000
   H     55.70000000    68.08000000    13.61000000
   H     53.95000000    66.72000000    15.57000000
   H     52.16000000    67.93000000    14.75000000
   H     52.99000000    68.26000000    13.27000000
   N     54.73000000    65.47000000    12.71000000
   C     54.68000000    64.34000000    11.81000000
   C     53.51000000    64.34000000    10.83000000
   O     53.10000000    63.29000000    10.33000000
   H     55.59000000    65.99000000    12.74000000
   H     54.68000000    63.43000000    12.41000000
   H     55.58000000    64.36000000    11.19000000
   N     52.81000000    65.47000000    10.67000000
   C     51.44000000    65.63000000    10.23000000
   C     51.38000000    65.92000000     8.74000000
   O     50.38000000    65.62000000     8.09000000
   C     50.86000000    66.72000000    11.12000000
   C     49.35000000    66.82000000    10.97000000
   N     48.78000000    67.92000000    11.46000000
   O     48.61000000    65.86000000    10.74000000
   H     53.23000000    66.32000000    11.00000000
   H     50.85000000    64.73000000    10.37000000
   H     51.31000000    67.64000000    10.75000000
   H     51.07000000    66.66000000    12.19000000
   H     49.39000000    68.65000000    11.79000000
   H     47.78000000    68.03000000    11.54000000
   N     52.41000000    66.65000000     8.29000000
   C     52.56000000    66.94000000     6.88000000
   C     52.74000000    68.41000000     6.52000000
   O     52.23000000    68.84000000     5.49000000
   H     53.12000000    66.99000000     8.92000000
   H     51.73000000    66.57000000     6.28000000
   H     53.51000000    66.47000000     6.60000000
   N     53.36000000    69.27000000     7.32000000
   C     53.48000000    70.70000000     7.10000000
   C     54.65000000    71.25000000     7.91000000
   O     54.97000000    70.76000000     9.00000000
   C     52.22000000    71.42000000     7.55000000
   C     52.13000000    72.92000000     7.33000000
   O     51.16000000    70.95000000     6.74000000
   H     53.83000000    68.82000000     8.10000000
   H     53.63000000    70.89000000     6.04000000
   H     51.97000000    71.15000000     8.58000000
   H     51.55000000    70.35000000     6.10000000
   H     51.14000000    73.26000000     7.63000000
   H     52.83000000    73.41000000     8.01000000
   H     52.39000000    73.27000000     6.33000000
   N     55.25000000    72.30000000     7.34000000
   C     56.59000000    72.74000000     7.64000000
   C     56.49000000    74.16000000     8.18000000
   O     56.13000000    75.10000000     7.47000000
   C     57.51000000    72.69000000     6.42000000
   C     57.81000000    71.26000000     5.97000000
   C     58.80000000    73.43000000     6.75000000
   C     58.95000000    70.56000000     6.69000000
   H     54.91000000    72.61000000     6.45000000
   H     57.04000000    72.20000000     8.47000000
   H     57.07000000    73.37000000     5.69000000
   H     58.01000000    71.28000000     4.90000000
   H     56.88000000    70.72000000     6.16000000
   H     59.18000000    73.07000000     7.70000000
   H     59.49000000    73.25000000     5.93000000
   H     58.58000000    74.50000000     6.82000000
   H     59.92000000    71.06000000     6.57000000
   H     58.83000000    70.37000000     7.76000000
   H     59.03000000    69.56000000     6.26000000
   N     56.77000000    74.33000000     9.48000000
   C     57.10000000    75.58000000    10.13000000
   C     58.53000000    76.10000000     9.98000000
   O     59.38000000    75.31000000     9.57000000
   C     56.80000000    75.39000000    11.61000000
   C     55.41000000    74.86000000    11.92000000
   O     55.36000000    73.92000000    12.74000000
   O     54.38000000    75.39000000    11.44000000
   H     57.02000000    73.45000000     9.91000000
   H     56.43000000    76.38000000     9.84000000
   H     56.84000000    76.32000000    12.18000000
   H     57.59000000    74.75000000    12.00000000
   N     58.84000000    77.31000000    10.43000000
   C     60.09000000    77.99000000    10.17000000
   C     61.31000000    77.35000000    10.81000000
   O     62.23000000    77.09000000    10.04000000
   C     60.18000000    79.51000000    10.30000000
   C     61.45000000    80.11000000     9.76000000
   C     61.77000000    79.89000000     8.41000000
   C     62.08000000    81.01000000    10.62000000
   C     62.97000000    80.43000000     7.93000000
   C     63.23000000    81.60000000    10.08000000
   C     63.70000000    81.22000000     8.82000000
   H     58.08000000    77.78000000    10.90000000
   H     60.19000000    77.88000000     9.09000000
   H     60.19000000    79.68000000    11.38000000
   H     59.34000000    80.04000000     9.85000000
   H     61.17000000    79.17000000     7.88000000
   H     61.76000000    81.28000000    11.62000000
   H     63.31000000    80.20000000     6.93000000
   H     63.93000000    82.17000000    10.68000000
   H     64.65000000    81.61000000     8.47000000
   N     61.25000000    76.87000000    12.06000000
   C     62.30000000    76.04000000    12.62000000
   C     62.47000000    74.71000000    11.91000000
   O     63.58000000    74.18000000    11.86000000
   C     61.99000000    75.85000000    14.10000000
   C     61.17000000    77.09000000    14.44000000
   C     60.43000000    77.40000000    13.13000000
   H     63.22000000    76.62000000    12.53000000
   H     61.37000000    74.97000000    14.24000000
   H     62.92000000    75.87000000    14.68000000
   H     60.54000000    76.94000000    15.32000000
   H     61.88000000    77.85000000    14.74000000
   H     59.42000000    76.99000000    13.15000000
   H     60.41000000    78.49000000    13.04000000
   N     61.42000000    74.13000000    11.33000000
   C     61.47000000    72.82000000    10.71000000
   C     62.11000000    72.87000000     9.33000000
   O     62.90000000    72.01000000     8.95000000
   C     60.05000000    72.25000000    10.71000000
   C     59.34000000    72.02000000    12.04000000
   C     57.87000000    71.64000000    11.88000000
   O     57.20000000    72.07000000    10.92000000
   O     57.31000000    71.04000000    12.82000000
   H     60.61000000    74.71000000    11.17000000
   H     62.08000000    72.16000000    11.32000000
   H     60.13000000    71.44000000    10.00000000
   H     59.43000000    72.97000000    10.17000000
   H     59.43000000    72.82000000    12.77000000
   H     59.82000000    71.14000000    12.46000000
   N     61.78000000    73.96000000     8.64000000
   C     62.40000000    74.43000000     7.42000000
   H     63.41100000    74.02800000     7.34900000
   H     61.81500000    74.09600000     6.56300000
   H     62.44300000    75.51900000     7.43000000
   H     61.05000000    74.54000000     9.02000000
  Ca     54.83000000    71.52000000    11.89000000
   O     52.72000000    72.19000000    13.40000000
   H     52.21000000    71.80000000    14.11000000
   H     52.38000000    73.09000000    13.33000000
   O     53.24000000    73.10000000    10.32000000
   H     52.30000000    73.17000000    10.15000000
   H     53.52000000    74.00000000    10.50000000
   O     56.06000000    72.10000000    14.87000000
   H     56.87000000    71.93000000    14.39000000
   H     55.52000000    71.33000000    14.69000000
   O     52.95000000    69.84000000    10.91000000
   H     53.58000000    69.14000000    10.73000000
   H     52.56000000    69.60000000    11.75000000

Ca 1.70



