%chk=loop2.cluster119.chk
%nprocshared=48
%mem=10GB
%nosave
#b3lyp/svp scf=(tight,noincore) Test 
#IOP(5/87=12) Density=Current Pop=(MK,readradii) iop(6/33=2) iop(6/42=6)

loop2.cluster119 

   -2  1 
   C     94.88000000    75.29000000    45.06000000
   C     96.39000000    75.17000000    44.99000000
   O     97.09000000    76.12000000    44.62000000
   H     94.42500000    74.41400000    44.59800000
   H     94.56800000    75.35400000    46.10200000
   H     94.56100000    76.18700000    44.52900000
   N     96.94000000    73.99000000    45.27000000
   C     98.36000000    73.78000000    45.49000000
   C     98.72000000    74.39000000    46.83000000
   O     98.00000000    74.30000000    47.82000000
   C     98.63000000    72.28000000    45.51000000
   C    100.12000000    72.01000000    45.61000000
   O    100.97000000    72.69000000    45.00000000
   O    100.42000000    71.00000000    46.28000000
   H     96.29000000    73.23000000    45.45000000
   H     98.82000000    74.34000000    44.68000000
   H     98.39000000    71.87000000    44.53000000
   H     98.07000000    71.79000000    46.31000000
   N     99.88000000    75.04000000    46.96000000
   C    100.43000000    75.67000000    48.15000000
   C    100.00000000    77.13000000    48.12000000
   O     99.56000000    77.62000000    47.08000000
   C    101.94000000    75.47000000    48.18000000
   H    100.50000000    75.10000000    46.16000000
   H     99.99000000    75.28000000    49.06000000
   H    102.28000000    75.60000000    49.21000000
   H    102.24000000    74.50000000    47.77000000
   H    102.36000000    76.21000000    47.50000000
   N     99.94000000    77.96000000    49.16000000
   C    100.49000000    77.68000000    50.47000000
   C     99.77000000    76.54000000    51.17000000
   O     98.55000000    76.36000000    51.11000000
   C    100.37000000    79.00000000    51.23000000
   C    101.05000000    80.24000000    50.67000000
   O    102.15000000    80.15000000    50.08000000
   O    100.42000000    81.32000000    50.66000000
   H     99.69000000    78.90000000    48.90000000
   H    101.57000000    77.53000000    50.39000000
   H    100.80000000    78.88000000    52.22000000
   H     99.32000000    79.26000000    51.36000000
   N    100.51000000    75.71000000    51.92000000
   C     99.96000000    74.64000000    52.71000000
   C     99.64000000    73.47000000    51.79000000
   O    100.21000000    73.36000000    50.70000000
   H    101.51000000    75.84000000    51.94000000
   H     99.12000000    75.11000000    53.22000000
   H    100.55000000    74.22000000    53.52000000
   N     98.90000000    72.46000000    52.24000000
   C     98.49000000    72.17000000    53.60000000
   C     97.29000000    73.01000000    54.03000000
   O     97.14000000    73.35000000    55.19000000
   C     98.15000000    70.69000000    53.76000000
   C     99.35000000    69.78000000    53.57000000
   N    100.41000000    69.86000000    54.38000000
   O     99.41000000    69.04000000    52.59000000
   H     98.71000000    71.77000000    51.52000000
   H     99.36000000    72.45000000    54.20000000
   H     97.35000000    70.36000000    53.10000000
   H     97.92000000    70.57000000    54.82000000
   H    100.42000000    70.49000000    55.16000000
   H    101.08000000    69.10000000    54.35000000
   N     96.53000000    73.56000000    53.08000000
   C     95.38000000    74.39000000    53.38000000
   C     95.75000000    75.70000000    54.05000000
   O     95.32000000    76.04000000    55.15000000
   H     96.78000000    73.50000000    52.10000000
   H     94.72000000    73.88000000    54.08000000
   H     94.85000000    74.63000000    52.46000000
   N     96.68000000    76.50000000    53.50000000
   C     97.09000000    77.76000000    54.09000000
   C     96.50000000    78.89000000    53.25000000
   O     97.11000000    79.52000000    52.38000000
   C     98.59000000    77.82000000    54.32000000
   C     98.94000000    79.04000000    55.16000000
   O     99.16000000    76.74000000    55.02000000
   H     97.10000000    76.15000000    52.66000000
   H     96.78000000    77.77000000    55.13000000
   H     99.12000000    77.84000000    53.36000000
   H    100.08000000    77.02000000    54.93000000
   H     98.34000000    79.04000000    56.07000000
   H     99.94000000    79.03000000    55.59000000
   H     98.73000000    79.94000000    54.58000000
   N     95.20000000    79.14000000    53.43000000
   C     94.36000000    79.88000000    52.51000000
   C     93.61000000    80.91000000    53.35000000
   O     93.64000000    80.87000000    54.58000000
   C     93.40000000    78.92000000    51.82000000
   C     94.11000000    78.09000000    50.76000000
   C     92.56000000    78.04000000    52.76000000
   C     94.85000000    78.88000000    49.68000000
   H     94.67000000    78.57000000    54.07000000
   H     94.89000000    80.58000000    51.87000000
   H     92.67000000    79.52000000    51.28000000
   H     93.43000000    77.35000000    50.32000000
   H     94.98000000    77.57000000    51.16000000
   H     91.76000000    77.58000000    52.18000000
   H     93.24000000    77.36000000    53.27000000
   H     91.97000000    78.61000000    53.47000000
   H     95.51000000    79.67000000    50.04000000
   H     95.53000000    78.22000000    49.15000000
   H     94.18000000    79.22000000    48.89000000
   N     93.03000000    81.92000000    52.70000000
   C     92.43000000    83.09000000    53.31000000
   C     91.24000000    83.51000000    52.47000000
   O     91.39000000    83.69000000    51.26000000
   C     93.45000000    84.21000000    53.53000000
   C     94.57000000    84.29000000    52.50000000
   O     95.60000000    83.60000000    52.62000000
   O     94.40000000    85.06000000    51.53000000
   H     93.05000000    81.91000000    51.69000000
   H     92.07000000    82.85000000    54.31000000
   H     93.95000000    83.92000000    54.45000000
   H     92.94000000    85.17000000    53.64000000
   N     90.08000000    83.74000000    53.09000000
   C     88.83000000    84.19000000    52.49000000
   C     88.38000000    83.35000000    51.31000000
   O     88.49000000    82.13000000    51.37000000
   C     87.83000000    84.25000000    53.64000000
   C     86.47000000    84.70000000    53.15000000
   C     85.58000000    83.65000000    52.85000000
   C     86.06000000    86.04000000    53.17000000
   C     84.29000000    83.95000000    52.42000000
   C     84.73000000    86.28000000    52.83000000
   C     83.82000000    85.27000000    52.47000000
   H     90.06000000    83.65000000    54.09000000
   H     89.05000000    85.19000000    52.12000000
   H     88.15000000    84.94000000    54.42000000
   H     87.81000000    83.25000000    54.07000000
   H     85.95000000    82.64000000    52.80000000
   H     86.73000000    86.85000000    53.42000000
   H     83.60000000    83.19000000    52.07000000
   H     84.40000000    87.30000000    52.82000000
   H     82.78000000    85.46000000    52.24000000
   N     87.85000000    83.92000000    50.22000000
   C     87.21000000    83.24000000    49.12000000
   C     87.99000000    82.11000000    48.45000000
   O     87.35000000    81.23000000    47.87000000
   C     86.90000000    84.33000000    48.10000000
   C     86.50000000    85.49000000    49.00000000
   C     87.59000000    85.34000000    50.05000000
   H     86.28000000    82.79000000    49.47000000
   H     87.82000000    84.60000000    47.58000000
   H     86.15000000    84.12000000    47.34000000
   H     86.60000000    86.40000000    48.40000000
   H     85.50000000    85.27000000    49.37000000
   H     88.51000000    85.84000000    49.77000000
   H     87.33000000    85.86000000    50.98000000
   N     89.31000000    82.02000000    48.60000000
   C     90.19000000    80.90000000    48.31000000
   C     89.68000000    79.53000000    48.72000000
   O     90.02000000    78.56000000    48.04000000
   C     91.59000000    81.08000000    48.90000000
   C     92.45000000    82.17000000    48.27000000
   C     93.72000000    82.55000000    49.01000000
   O     94.29000000    83.63000000    48.72000000
   O     94.17000000    81.85000000    49.95000000
   H     89.84000000    82.68000000    49.15000000
   H     90.32000000    80.86000000    47.23000000
   H     92.12000000    80.13000000    48.92000000
   H     91.43000000    81.28000000    49.96000000
   H     91.85000000    83.07000000    48.13000000
   H     92.68000000    81.84000000    47.26000000
   N     88.92000000    79.37000000    49.81000000
   C     88.35000000    78.13000000    50.29000000
   H     87.36700000    77.98500000    49.84200000
   H     89.00000000    77.30000000    50.01500000
   H     88.25100000    78.17100000    51.37500000
   H     88.67000000    80.25000000    50.22000000
  Ca     96.38000000    83.60000000    50.09000000
   O     97.19000000    84.70000000    47.40000000
   H     98.07000000    84.96000000    47.15000000
   H     96.93000000    84.06000000    46.75000000
   O     99.26000000    83.74000000    50.00000000
   H     99.57000000    84.45000000    50.58000000
   H     99.77000000    82.98000000    50.27000000
   O     97.92000000    81.69000000    51.23000000
   H     97.71000000    80.83000000    51.60000000
   H     98.87000000    81.67000000    51.12000000
   O     96.97000000    81.76000000    48.28000000
   H     97.80000000    81.29000000    48.37000000
   H     96.34000000    81.10000000    47.98000000
   O     96.46000000    86.18000000    49.68000000
   H     97.34000000    86.32000000    49.34000000
   H     96.25000000    86.99000000    50.15000000
   O     98.07000000    85.26000000    51.84000000
   H     98.73000000    85.12000000    52.51000000
   H     97.76000000    86.15000000    51.98000000

Ca 1.70



