%chk=loop4.cluster7.chk
%nprocshared=48
%mem=10GB
%nosave
#b3lyp/svp scf=(tight,noincore) Test 
#IOP(5/87=12) Density=Current Pop=(MK,readradii) iop(6/33=2) iop(6/42=6)

loop4.cluster7 

   -3  1 
   C     69.15000000    53.18000000    42.99000000
   C     68.38000000    53.50000000    44.26000000
   O     67.74000000    54.55000000    44.22000000
   H     70.14500000    52.81900000    43.25000000
   H     68.62100000    52.41100000    42.42800000
   H     69.23800000    54.08000000    42.38100000
   N     68.51000000    52.71000000    45.34000000
   C     67.91000000    52.95000000    46.63000000
   C     68.67000000    54.09000000    47.29000000
   O     69.89000000    54.08000000    47.33000000
   C     67.98000000    51.61000000    47.36000000
   C     67.48000000    51.55000000    48.80000000
   O     66.83000000    52.52000000    49.26000000
   O     68.02000000    50.61000000    49.41000000
   H     69.11000000    51.91000000    45.25000000
   H     66.86000000    53.19000000    46.44000000
   H     69.04000000    51.35000000    47.39000000
   H     67.38000000    50.91000000    46.79000000
   N     67.92000000    55.04000000    47.87000000
   C     68.49000000    56.25000000    48.42000000
   C     68.82000000    56.04000000    49.89000000
   O     69.77000000    56.66000000    50.37000000
   C     67.52000000    57.40000000    48.18000000
   C     67.65000000    57.68000000    46.68000000
   C     67.86000000    58.61000000    49.04000000
   C     66.84000000    58.88000000    46.19000000
   H     66.96000000    55.19000000    47.60000000
   H     69.52000000    56.47000000    48.14000000
   H     66.50000000    57.14000000    48.44000000
   H     67.45000000    56.80000000    46.08000000
   H     68.68000000    57.97000000    46.48000000
   H     68.78000000    59.11000000    48.72000000
   H     66.99000000    59.26000000    48.97000000
   H     67.84000000    58.39000000    50.11000000
   H     65.78000000    58.86000000    46.42000000
   H     67.42000000    59.75000000    46.51000000
   H     66.81000000    58.85000000    45.10000000
   N     68.13000000    55.15000000    50.60000000
   C     67.88000000    55.28000000    52.02000000
   C     67.97000000    53.94000000    52.75000000
   O     67.49000000    53.82000000    53.87000000
   C     66.74000000    56.20000000    52.44000000
   C     65.43000000    55.78000000    51.80000000
   O     64.50000000    56.60000000    51.93000000
   O     65.27000000    54.64000000    51.31000000
   H     67.61000000    54.41000000    50.14000000
   H     68.71000000    55.78000000    52.52000000
   H     66.89000000    57.22000000    52.08000000
   H     66.72000000    56.18000000    53.53000000
   N     68.55000000    52.93000000    52.10000000
   C     69.20000000    51.74000000    52.60000000
   C     68.30000000    50.52000000    52.78000000
   O     68.82000000    49.51000000    53.26000000
   H     68.89000000    53.18000000    51.18000000
   H     69.52000000    52.00000000    53.61000000
   H     70.07000000    51.42000000    52.03000000
   N     67.00000000    50.60000000    52.50000000
   C     66.08000000    49.53000000    52.85000000
   C     66.14000000    48.31000000    51.95000000
   O     65.62000000    47.26000000    52.32000000
   C     64.64000000    50.04000000    52.93000000
   C     64.23000000    50.90000000    51.74000000
   O     63.48000000    51.88000000    51.89000000
   O     64.76000000    50.62000000    50.64000000
   H     66.66000000    51.35000000    51.92000000
   H     66.36000000    49.17000000    53.84000000
   H     64.68000000    50.54000000    53.90000000
   H     63.94000000    49.21000000    53.03000000
   N     66.77000000    48.30000000    50.77000000
   C     66.73000000    47.24000000    49.78000000
   C     65.59000000    47.42000000    48.79000000
   O     65.23000000    46.54000000    48.01000000
   H     67.29000000    49.14000000    50.57000000
   H     66.64000000    46.25000000    50.22000000
   H     67.63000000    47.28000000    49.17000000
   N     64.88000000    48.55000000    48.87000000
   C     63.65000000    48.76000000    48.13000000
   C     63.85000000    49.97000000    47.23000000
   O     64.29000000    51.02000000    47.69000000
   C     62.46000000    49.03000000    49.06000000
   C     62.25000000    48.04000000    50.20000000
   C     61.04000000    48.39000000    51.06000000
   N     60.75000000    47.61000000    52.10000000
   O     60.30000000    49.36000000    50.86000000
   H     65.07000000    49.21000000    49.60000000
   H     63.41000000    47.96000000    47.43000000
   H     61.52000000    48.88000000    48.54000000
   H     62.50000000    50.06000000    49.40000000
   H     63.12000000    47.96000000    50.84000000
   H     62.11000000    47.04000000    49.78000000
   H     61.41000000    46.89000000    52.34000000
   H     59.98000000    47.86000000    52.70000000
   N     63.44000000    49.90000000    45.96000000
   C     63.45000000    51.03000000    45.05000000
   C     62.03000000    51.38000000    44.63000000
   O     61.42000000    50.73000000    43.78000000
   C     64.29000000    50.82000000    43.80000000
   C     64.43000000    52.09000000    42.95000000
   C     65.73000000    50.46000000    44.13000000
   H     63.26000000    48.98000000    45.60000000
   H     63.79000000    51.99000000    45.43000000
   H     63.79000000    50.07000000    43.18000000
   H     64.97000000    51.88000000    42.03000000
   H     63.47000000    52.55000000    42.73000000
   H     65.08000000    52.75000000    43.53000000
   H     66.22000000    50.11000000    43.22000000
   H     66.40000000    51.21000000    44.54000000
   H     65.71000000    49.65000000    44.86000000
   N     61.44000000    52.34000000    45.34000000
   C     60.03000000    52.63000000    45.20000000
   C     59.78000000    53.51000000    43.98000000
   O     60.71000000    53.84000000    43.25000000
   C     59.31000000    53.28000000    46.38000000
   C     59.41000000    54.77000000    46.69000000
   N     60.63000000    55.29000000    46.83000000
   O     58.43000000    55.49000000    46.59000000
   H     62.07000000    52.92000000    45.89000000
   H     59.52000000    51.67000000    45.12000000
   H     59.62000000    52.75000000    47.29000000
   H     58.24000000    53.11000000    46.23000000
   H     61.41000000    54.65000000    46.90000000
   H     60.69000000    56.30000000    46.87000000
   N     58.52000000    53.76000000    43.61000000
   C     58.18000000    54.50000000    42.41000000
   C     58.79000000    55.90000000    42.39000000
   O     59.29000000    56.32000000    41.35000000
   C     56.66000000    54.66000000    42.32000000
   C     56.20000000    55.37000000    41.07000000
   C     56.60000000    54.95000000    39.79000000
   C     55.51000000    56.58000000    41.21000000
   C     56.20000000    55.63000000    38.63000000
   C     55.08000000    57.26000000    40.06000000
   C     55.43000000    56.80000000    38.78000000
   O     54.98000000    57.47000000    37.67000000
   H     57.79000000    53.32000000    44.14000000
   H     58.49000000    53.92000000    41.55000000
   H     56.34000000    55.27000000    43.16000000
   H     56.05000000    53.79000000    42.56000000
   H     57.22000000    54.08000000    39.70000000
   H     55.16000000    56.93000000    42.17000000
   H     56.56000000    55.44000000    37.63000000
   H     54.57000000    58.20000000    40.21000000
   H     54.29000000    58.11000000    37.86000000
   N     58.66000000    56.60000000    43.52000000
   C     59.34000000    57.87000000    43.67000000
   C     60.84000000    57.81000000    43.43000000
   O     61.44000000    58.74000000    42.89000000
   C     59.00000000    58.35000000    45.08000000
   C     59.14000000    59.82000000    45.46000000
   C     58.47000000    60.16000000    46.79000000
   O     57.52000000    60.96000000    46.93000000
   O     58.91000000    59.54000000    47.78000000
   H     57.92000000    56.35000000    44.16000000
   H     58.91000000    58.58000000    42.96000000
   H     59.50000000    57.65000000    45.75000000
   H     57.91000000    58.27000000    45.14000000
   H     58.76000000    60.37000000    44.61000000
   H     60.21000000    60.04000000    45.48000000
   N     61.59000000    56.82000000    43.94000000
   C     63.00000000    56.60000000    43.69000000
   C     63.26000000    56.29000000    42.22000000
   O     64.25000000    56.73000000    41.64000000
   C     63.57000000    55.58000000    44.66000000
   C     63.86000000    56.04000000    46.09000000
   C     64.18000000    54.81000000    46.91000000
   O     65.15000000    54.83000000    47.71000000
   O     63.37000000    53.86000000    47.03000000
   H     61.02000000    56.15000000    44.44000000
   H     63.58000000    57.50000000    43.88000000
   H     64.45000000    55.16000000    44.17000000
   H     62.92000000    54.71000000    44.75000000
   H     63.12000000    56.71000000    46.52000000
   H     64.81000000    56.57000000    46.04000000
   N     62.33000000    55.58000000    41.57000000
   C     62.45000000    55.23000000    40.17000000
   H     63.50400000    55.16600000    39.90100000
   H     61.97100000    54.26700000    39.99300000
   H     61.96600000    55.99400000    39.56100000
   H     61.52000000    55.20000000    42.02000000
  Ca     64.36000000    53.03000000    49.51000000
   O     61.68000000    53.09000000    49.92000000
   H     61.00000000    52.42000000    49.81000000
   H     61.19000000    53.90000000    50.05000000
   O     63.19000000    55.78000000    49.70000000
   H     63.57000000    56.35000000    49.03000000
   H     63.54000000    56.10000000    50.53000000

Ca 1.70



