%chk=loop2.cluster38.chk
%nprocshared=48
%mem=10GB
%nosave
#b3lyp/svp scf=(tight,noincore) Test 
#IOP(5/87=12) Density=Current Pop=(MK,readradii) iop(6/33=2) iop(6/42=6)

loop2.cluster38 

   -2  1 
   C     50.25000000    15.60000000    19.21000000
   C     49.54000000    14.26000000    19.06000000
   O     49.24000000    13.55000000    20.01000000
   H     51.20000000    15.56900000    18.67700000
   H     49.62600000    16.39100000    18.79300000
   H     50.43300000    15.79900000    20.26600000
   N     49.36000000    13.85000000    17.80000000
   C     48.65000000    12.63000000    17.49000000
   C     49.32000000    11.31000000    17.84000000
   O     48.61000000    10.34000000    18.08000000
   C     48.38000000    12.70000000    15.99000000
   C     47.48000000    11.57000000    15.51000000
   O     46.29000000    11.44000000    15.86000000
   O     48.00000000    10.83000000    14.65000000
   H     49.46000000    14.48000000    17.01000000
   H     47.69000000    12.72000000    18.00000000
   H     49.27000000    12.66000000    15.37000000
   H     47.94000000    13.68000000    15.80000000
   N     50.65000000    11.33000000    17.93000000
   C     51.52000000    10.24000000    18.33000000
   C     51.05000000     9.37000000    19.49000000
   O     51.01000000     8.14000000    19.48000000
   C     51.83000000     9.38000000    17.11000000
   H     51.13000000    12.12000000    17.53000000
   H     52.46000000    10.68000000    18.65000000
   H     52.44000000     8.52000000    17.35000000
   H     50.91000000     9.03000000    16.63000000
   H     52.45000000     9.98000000    16.44000000
   N     50.53000000     9.94000000    20.58000000
   C     50.09000000     9.33000000    21.82000000
   C     48.90000000     8.41000000    21.62000000
   O     48.60000000     7.57000000    22.46000000
   C     51.14000000     8.54000000    22.60000000
   C     52.52000000     9.19000000    22.67000000
   O     53.50000000     8.69000000    22.09000000
   O     52.59000000    10.34000000    23.15000000
   H     50.50000000    10.95000000    20.49000000
   H     49.73000000    10.17000000    22.41000000
   H     51.29000000     7.52000000    22.24000000
   H     50.81000000     8.37000000    23.62000000
   N     48.16000000     8.44000000    20.50000000
   C     46.95000000     7.65000000    20.37000000
   C     45.99000000     7.86000000    21.53000000
   O     45.98000000     8.99000000    22.02000000
   H     48.52000000     9.02000000    19.77000000
   H     47.16000000     6.58000000    20.32000000
   H     46.39000000     7.93000000    19.48000000
   N     45.28000000     6.78000000    21.86000000
   C     44.30000000     6.77000000    22.93000000
   C     43.32000000     7.92000000    22.77000000
   O     42.75000000     8.41000000    23.75000000
   C     45.06000000     6.62000000    24.24000000
   C     45.69000000     5.24000000    24.36000000
   N     47.01000000     5.11000000    24.47000000
   O     44.95000000     4.26000000    24.40000000
   H     45.52000000     5.88000000    21.48000000
   H     43.74000000     5.84000000    22.86000000
   H     44.34000000     6.69000000    25.06000000
   H     45.78000000     7.42000000    24.46000000
   H     47.61000000     5.92000000    24.38000000
   H     47.40000000     4.18000000    24.47000000
   N     42.94000000     8.33000000    21.56000000
   C     41.93000000     9.26000000    21.10000000
   C     42.43000000    10.69000000    21.03000000
   O     41.78000000    11.54000000    20.41000000
   H     43.59000000     8.07000000    20.84000000
   H     41.16000000     9.19000000    21.88000000
   H     41.61000000     9.01000000    20.09000000
   N     43.64000000    10.91000000    21.54000000
   C     44.32000000    12.18000000    21.40000000
   C     44.69000000    12.76000000    22.75000000
   O     45.06000000    12.05000000    23.68000000
   C     45.65000000    12.02000000    20.66000000
   C     45.46000000    11.36000000    19.30000000
   O     46.10000000    13.33000000    20.39000000
   H     44.03000000    10.18000000    22.13000000
   H     43.71000000    12.95000000    20.95000000
   H     46.38000000    11.50000000    21.28000000
   H     47.05000000    13.20000000    20.34000000
   H     44.67000000    11.86000000    18.73000000
   H     46.41000000    11.36000000    18.77000000
   H     45.07000000    10.35000000    19.44000000
   N     44.56000000    14.09000000    22.87000000
   C     45.19000000    14.85000000    23.93000000
   C     46.65000000    14.45000000    24.09000000
   O     47.39000000    14.05000000    23.20000000
   C     44.89000000    16.34000000    23.81000000
   C     45.12000000    17.24000000    25.02000000
   C     45.66000000    16.79000000    22.57000000
   C     44.67000000    18.69000000    24.84000000
   H     44.24000000    14.54000000    22.03000000
   H     44.74000000    14.51000000    24.86000000
   H     43.83000000    16.27000000    23.59000000
   H     46.17000000    17.13000000    25.30000000
   H     44.61000000    16.88000000    25.92000000
   H     45.28000000    17.76000000    22.24000000
   H     46.73000000    16.90000000    22.77000000
   H     45.60000000    16.12000000    21.72000000
   H     43.61000000    18.81000000    24.58000000
   H     44.72000000    19.26000000    25.77000000
   H     45.20000000    19.16000000    24.01000000
   N     47.12000000    14.56000000    25.34000000
   C     48.51000000    14.39000000    25.71000000
   C     48.68000000    13.72000000    27.07000000
   O     49.37000000    14.20000000    27.97000000
   C     49.20000000    15.74000000    25.52000000
   C     50.71000000    15.57000000    25.60000000
   O     51.33000000    14.50000000    25.43000000
   O     51.31000000    16.61000000    25.94000000
   H     46.44000000    14.89000000    26.00000000
   H     48.96000000    13.70000000    25.00000000
   H     48.87000000    16.54000000    26.18000000
   H     49.01000000    16.09000000    24.51000000
   N     47.98000000    12.60000000    27.26000000
   C     48.19000000    11.74000000    28.40000000
   C     47.42000000    12.02000000    29.68000000
   O     47.82000000    11.56000000    30.74000000
   C     47.95000000    10.29000000    27.98000000
   C     46.51000000     9.98000000    27.64000000
   C     45.62000000     9.59000000    28.65000000
   C     46.05000000    10.05000000    26.32000000
   C     44.26000000     9.39000000    28.36000000
   C     44.72000000     9.74000000    26.02000000
   C     43.82000000     9.40000000    27.04000000
   H     47.43000000    12.28000000    26.48000000
   H     49.26000000    11.85000000    28.62000000
   H     48.23000000     9.64000000    28.81000000
   H     48.53000000    10.05000000    27.10000000
   H     45.99000000     9.52000000    29.66000000
   H     46.78000000    10.14000000    25.53000000
   H     43.49000000     9.21000000    29.09000000
   H     44.38000000     9.67000000    25.00000000
   H     42.79000000     9.17000000    26.81000000
   N     46.26000000    12.69000000    29.75000000
   C     45.49000000    13.31000000    28.69000000
   C     45.79000000    14.78000000    28.45000000
   O     45.08000000    15.43000000    27.68000000
   C     44.00000000    13.15000000    29.01000000
   C     43.90000000    12.62000000    30.43000000
   C     45.36000000    12.62000000    30.88000000
   H     45.55000000    12.79000000    27.73000000
   H     43.41000000    14.06000000    28.89000000
   H     43.57000000    12.40000000    28.34000000
   H     43.36000000    13.35000000    31.04000000
   H     43.52000000    11.60000000    30.44000000
   H     45.41000000    13.54000000    31.46000000
   H     45.57000000    11.80000000    31.57000000
   N     46.76000000    15.28000000    29.21000000
   C     46.83000000    16.71000000    29.43000000
   C     48.04000000    17.39000000    28.80000000
   O     49.18000000    16.97000000    28.97000000
   C     46.94000000    16.84000000    30.95000000
   C     45.55000000    16.64000000    31.56000000
   C     45.64000000    16.87000000    33.06000000
   O     45.17000000    17.94000000    33.51000000
   O     46.13000000    16.01000000    33.83000000
   H     47.34000000    14.65000000    29.74000000
   H     45.92000000    17.23000000    29.11000000
   H     47.37000000    17.79000000    31.26000000
   H     47.52000000    16.03000000    31.39000000
   H     45.11000000    15.68000000    31.28000000
   H     44.78000000    17.24000000    31.09000000
   N     47.89000000    18.56000000    28.18000000
   C     48.74000000    19.33000000    27.30000000
   H     49.70500000    18.83300000    27.20200000
   H     48.27100000    19.40900000    26.31900000
   H     48.88600000    20.32700000    27.71500000
   H     46.94000000    18.86000000    28.38000000
  Ca     52.25000000    12.86000000    23.53000000
   O     49.90000000    13.67000000    22.55000000
   H     49.07000000    13.84000000    22.99000000
   H     49.66000000    13.62000000    21.62000000
   O     53.87000000    14.71000000    25.28000000
   H     53.09000000    15.27000000    25.28000000
   H     54.60000000    15.32000000    25.26000000
   O     53.11000000    14.90000000    22.37000000
   H     52.65000000    15.74000000    22.31000000
   H     53.92000000    15.04000000    21.89000000
   O     52.50000000    12.33000000    20.97000000
   H     52.69000000    12.76000000    20.14000000
   H     53.01000000    11.51000000    20.94000000
   O     52.99000000    11.87000000    25.93000000
   H     52.65000000    12.48000000    26.59000000
   H     53.25000000    11.10000000    26.42000000
   O     50.25000000    11.51000000    24.77000000
   H     49.31000000    11.38000000    24.61000000
   H     50.55000000    10.69000000    25.15000000
   O     54.84000000    12.61000000    23.56000000
   H     55.36000000    12.10000000    22.95000000
   H     55.48000000    13.18000000    24.00000000

Ca 1.70



