%chk=loop3.cluster147.chk
%nprocshared=48
%mem=10GB
%nosave
#b3lyp/svp scf=(tight,noincore) Test 
#IOP(5/87=12) Density=Current Pop=(MK,readradii) iop(6/33=2) iop(6/42=6)

loop3.cluster147 

   0  1 
   C     52.35000000    58.08000000    42.31000000
   C     52.63000000    58.27000000    43.79000000
   O     51.92000000    57.89000000    44.72000000
   H     51.57100000    58.77500000    41.99600000
   H     53.25900000    58.27300000    41.74000000
   H     52.01800000    57.05700000    42.13100000
   N     53.82000000    58.82000000    44.07000000
   C     54.48000000    58.84000000    45.35000000
   C     53.86000000    59.84000000    46.32000000
   O     54.53000000    60.29000000    47.25000000
   C     54.74000000    57.46000000    45.96000000
   C     55.48000000    56.57000000    44.98000000
   O     55.38000000    55.35000000    45.22000000
   O     56.19000000    57.09000000    44.10000000
   H     54.25000000    59.17000000    43.22000000
   H     55.49000000    59.23000000    45.23000000
   H     53.76000000    57.01000000    46.11000000
   H     55.29000000    57.56000000    46.90000000
   N     52.65000000    60.36000000    46.10000000
   C     51.97000000    61.42000000    46.82000000
   C     52.36000000    61.57000000    48.29000000
   O     52.87000000    62.63000000    48.62000000
   C     50.46000000    61.27000000    46.66000000
   C     49.52000000    60.22000000    47.23000000
   C     49.87000000    58.75000000    46.99000000
   C     49.00000000    57.88000000    47.89000000
   N     49.36000000    57.88000000    49.32000000
   H     52.14000000    59.80000000    45.44000000
   H     52.24000000    62.33000000    46.29000000
   H     50.35000000    61.32000000    45.58000000
   H     49.92000000    62.14000000    47.06000000
   H     48.50000000    60.35000000    46.86000000
   H     49.31000000    60.46000000    48.28000000
   H     50.93000000    58.50000000    47.11000000
   H     49.62000000    58.64000000    45.93000000
   H     49.01000000    56.85000000    47.55000000
   H     47.99000000    58.27000000    47.79000000
   H     48.69000000    57.44000000    49.93000000
   H     50.25000000    57.41000000    49.49000000
   H     49.42000000    58.76000000    49.79000000
   N     51.97000000    60.63000000    49.16000000
   C     52.48000000    60.67000000    50.52000000
   C     52.56000000    59.23000000    50.99000000
   O     52.05000000    58.34000000    50.31000000
   C     51.58000000    61.49000000    51.44000000
   C     50.09000000    61.20000000    51.41000000
   O     49.35000000    61.90000000    52.14000000
   O     49.52000000    60.29000000    50.78000000
   H     51.68000000    59.74000000    48.78000000
   H     53.50000000    61.05000000    50.56000000
   H     51.66000000    62.51000000    51.07000000
   H     52.00000000    61.59000000    52.44000000
   N     53.26000000    58.90000000    52.08000000
   C     53.70000000    57.57000000    52.44000000
   C     52.60000000    56.75000000    53.10000000
   O     51.71000000    57.34000000    53.71000000
   H     53.75000000    59.63000000    52.58000000
   H     54.53000000    57.61000000    53.15000000
   H     54.08000000    57.03000000    51.58000000
   N     52.77000000    55.43000000    53.05000000
   C     51.80000000    54.48000000    53.56000000
   C     52.46000000    53.41000000    54.42000000
   O     51.76000000    52.59000000    55.02000000
   C     50.82000000    53.95000000    52.51000000
   C     49.91000000    55.05000000    51.99000000
   N     48.98000000    55.54000000    52.82000000
   O     49.90000000    55.45000000    50.83000000
   H     53.59000000    55.08000000    52.58000000
   H     51.22000000    55.04000000    54.30000000
   H     50.23000000    53.09000000    52.83000000
   H     51.40000000    53.56000000    51.68000000
   H     48.90000000    55.34000000    53.81000000
   H     48.43000000    56.23000000    52.33000000
   N     53.77000000    53.47000000    54.67000000
   C     54.51000000    52.49000000    55.43000000
   C     54.83000000    51.28000000    54.55000000
   O     54.98000000    51.39000000    53.33000000
   H     54.33000000    53.92000000    53.96000000
   H     53.94000000    52.12000000    56.28000000
   H     55.38000000    52.95000000    55.89000000
   N     54.67000000    50.11000000    55.17000000
   C     54.46000000    48.84000000    54.51000000
   C     53.24000000    48.71000000    53.61000000
   O     52.68000000    47.63000000    53.44000000
   C     55.67000000    48.43000000    53.68000000
   C     56.96000000    48.55000000    54.46000000
   C     57.25000000    47.53000000    55.38000000
   C     57.84000000    49.59000000    54.17000000
   C     58.42000000    47.53000000    56.15000000
   C     58.96000000    49.65000000    55.01000000
   C     59.24000000    48.67000000    55.99000000
   O     60.34000000    48.87000000    56.76000000
   H     54.45000000    50.12000000    56.15000000
   H     54.34000000    48.05000000    55.25000000
   H     55.73000000    49.00000000    52.75000000
   H     55.61000000    47.37000000    53.46000000
   H     56.51000000    46.75000000    55.51000000
   H     57.67000000    50.31000000    53.39000000
   H     58.58000000    46.89000000    57.00000000
   H     59.59000000    50.53000000    55.03000000
   H     60.90000000    49.52000000    56.32000000
   N     52.69000000    49.79000000    53.05000000
   C     51.51000000    49.92000000    52.21000000
   C     50.24000000    49.48000000    52.92000000
   O     49.42000000    50.37000000    53.12000000
   C     51.72000000    49.22000000    50.87000000
   C     52.90000000    49.80000000    50.09000000
   C     50.51000000    49.24000000    49.93000000
   C     52.86000000    51.29000000    49.76000000
   H     53.06000000    50.69000000    53.30000000
   H     51.37000000    50.98000000    52.03000000
   H     51.93000000    48.18000000    51.12000000
   H     53.00000000    49.13000000    49.23000000
   H     53.79000000    49.67000000    50.70000000
   H     49.66000000    48.67000000    50.31000000
   H     50.14000000    50.24000000    49.73000000
   H     50.85000000    48.86000000    48.97000000
   H     51.91000000    51.43000000    49.24000000
   H     52.85000000    51.93000000    50.64000000
   H     53.75000000    51.58000000    49.20000000
   N     50.02000000    48.23000000    53.35000000
   C     48.88000000    47.87000000    54.16000000
   C     47.54000000    47.95000000    53.44000000
   O     46.56000000    48.30000000    54.08000000
   C     49.03000000    46.47000000    54.76000000
   O     49.37000000    45.58000000    53.72000000
   H     50.75000000    47.55000000    53.26000000
   H     48.90000000    48.58000000    54.99000000
   H     48.13000000    46.16000000    55.29000000
   H     49.78000000    46.45000000    55.56000000
   H     49.29000000    44.67000000    54.00000000
   N     47.61000000    47.75000000    52.12000000
   C     46.50000000    47.93000000    51.20000000
   C     45.85000000    49.30000000    51.21000000
   O     44.84000000    49.50000000    50.54000000
   C     45.49000000    46.79000000    51.35000000
   H     48.51000000    47.50000000    51.74000000
   H     47.03000000    47.77000000    50.26000000
   H     45.97000000    45.81000000    51.28000000
   H     44.89000000    47.00000000    52.23000000
   H     44.78000000    46.89000000    50.53000000
   N     46.51000000    50.22000000    51.92000000
   C     46.03000000    51.59000000    52.02000000
   C     46.27000000    52.40000000    50.76000000
   O     47.26000000    52.28000000    50.03000000
   C     46.62000000    52.27000000    53.25000000
   H     47.38000000    49.97000000    52.35000000
   H     44.95000000    51.56000000    52.22000000
   H     47.70000000    52.09000000    53.33000000
   H     46.46000000    53.34000000    53.34000000
   H     46.29000000    51.72000000    54.14000000
   N     45.26000000    53.22000000    50.51000000
   C     45.06000000    54.06000000    49.34000000
   C     45.18000000    53.52000000    47.92000000
   O     45.22000000    54.29000000    46.97000000
   C     45.83000000    55.36000000    49.51000000
   C     45.57000000    56.01000000    50.87000000
   C     46.32000000    57.33000000    50.94000000
   O     45.72000000    58.40000000    50.71000000
   O     47.51000000    57.42000000    51.31000000
   H     44.49000000    53.17000000    51.16000000
   H     44.01000000    54.35000000    49.37000000
   H     45.47000000    56.06000000    48.76000000
   H     46.87000000    55.07000000    49.41000000
   H     46.00000000    55.38000000    51.65000000
   H     44.50000000    56.18000000    51.02000000
   N     45.11000000    52.20000000    47.72000000
   C     45.37000000    51.52000000    46.47000000
   H     46.40600000    51.18000000    46.45000000
   H     44.70500000    50.66100000    46.37800000
   H     45.19700000    52.20500000    45.64000000
   H     44.85000000    51.66000000    48.53000000
  Ca     47.30000000    60.13000000    52.27000000
   O     44.71000000    60.77000000    52.74000000
   H     44.40000000    61.60000000    52.37000000
   H     44.14000000    60.62000000    53.49000000
   O     46.28000000    61.60000000    50.29000000
   H     46.58000000    62.12000000    49.54000000
   H     45.44000000    61.99000000    50.52000000
   O     47.16000000    62.31000000    53.93000000
   H     46.65000000    61.98000000    54.67000000
   H     46.93000000    63.24000000    53.89000000
   O     46.25000000    58.05000000    54.28000000
   H     45.33000000    58.33000000    54.27000000
   H     46.39000000    57.73000000    55.17000000
   O     49.63000000    59.20000000    53.67000000
   H     50.43000000    58.93000000    53.21000000
   H     49.64000000    58.68000000    54.48000000

Ca 1.70



