%chk=loop2.cluster49.chk
%nprocshared=48
%mem=10GB
%nosave
#b3lyp/svp scf=(tight,noincore) Test 
#IOP(5/87=12) Density=Current Pop=(MK,readradii) iop(6/33=2) iop(6/42=6)

loop2.cluster49 

   -2  1 
   C     59.16000000    49.13000000    18.53000000
   C     60.22000000    48.92000000    17.46000000
   O     61.04000000    49.82000000    17.29000000
   H     58.23500000    48.64000000    18.22600000
   H     59.50400000    48.70300000    19.47200000
   H     58.97900000    50.19700000    18.65900000
   N     60.23000000    47.72000000    16.86000000
   C     61.38000000    47.21000000    16.15000000
   C     61.59000000    47.86000000    14.79000000
   O     60.90000000    47.60000000    13.81000000
   C     61.29000000    45.69000000    16.06000000
   C     62.56000000    45.13000000    15.44000000
   O     63.57000000    45.35000000    16.15000000
   O     62.52000000    44.38000000    14.44000000
   H     59.42000000    47.12000000    16.98000000
   H     62.27000000    47.49000000    16.71000000
   H     60.40000000    45.38000000    15.51000000
   H     61.13000000    45.23000000    17.03000000
   N     62.54000000    48.81000000    14.71000000
   C     62.62000000    49.75000000    13.62000000
   C     63.57000000    49.35000000    12.50000000
   O     63.49000000    49.88000000    11.39000000
   C     63.03000000    51.03000000    14.35000000
   H     63.12000000    48.97000000    15.52000000
   H     61.70000000    49.92000000    13.07000000
   H     63.89000000    50.87000000    15.00000000
   H     63.25000000    51.82000000    13.64000000
   H     62.16000000    51.37000000    14.90000000
   N     64.51000000    48.44000000    12.75000000
   C     65.41000000    47.81000000    11.81000000
   C     64.93000000    46.54000000    11.12000000
   O     65.38000000    46.28000000    10.00000000
   C     66.76000000    47.69000000    12.52000000
   C     66.78000000    46.88000000    13.80000000
   O     65.87000000    46.06000000    14.06000000
   O     67.58000000    47.21000000    14.71000000
   H     64.59000000    48.32000000    13.75000000
   H     65.60000000    48.51000000    11.00000000
   H     67.09000000    48.70000000    12.72000000
   H     67.57000000    47.23000000    11.94000000
   N     64.02000000    45.76000000    11.71000000
   C     63.70000000    44.41000000    11.31000000
   C     64.46000000    43.19000000    11.81000000
   O     64.04000000    42.10000000    11.41000000
   H     63.74000000    45.95000000    12.66000000
   H     63.79000000    44.39000000    10.23000000
   H     62.64000000    44.27000000    11.53000000
   N     65.33000000    43.34000000    12.81000000
   C     66.07000000    42.24000000    13.40000000
   C     65.32000000    41.45000000    14.46000000
   O     65.70000000    40.32000000    14.77000000
   C     67.49000000    42.69000000    13.74000000
   C     67.64000000    43.53000000    15.01000000
   N     68.88000000    43.87000000    15.36000000
   O     66.66000000    43.82000000    15.69000000
   H     65.37000000    44.25000000    13.25000000
   H     66.26000000    41.49000000    12.64000000
   H     68.00000000    43.04000000    12.84000000
   H     68.13000000    41.82000000    13.93000000
   H     69.63000000    43.42000000    14.86000000
   H     69.06000000    44.31000000    16.25000000
   N     64.24000000    41.99000000    15.03000000
   C     63.36000000    41.40000000    16.02000000
   C     63.76000000    41.63000000    17.47000000
   O     63.08000000    41.21000000    18.41000000
   H     63.93000000    42.86000000    14.63000000
   H     63.31000000    40.32000000    15.94000000
   H     62.36000000    41.80000000    15.81000000
   N     64.92000000    42.25000000    17.71000000
   C     65.47000000    42.35000000    19.04000000
   C     65.61000000    43.81000000    19.44000000
   O     66.08000000    44.61000000    18.64000000
   C     66.78000000    41.57000000    19.08000000
   C     66.60000000    40.11000000    18.69000000
   O     67.69000000    42.20000000    18.20000000
   H     65.64000000    42.41000000    17.03000000
   H     64.89000000    41.81000000    19.80000000
   H     67.17000000    41.59000000    20.10000000
   H     68.43000000    41.61000000    18.06000000
   H     66.33000000    40.06000000    17.64000000
   H     67.51000000    39.51000000    18.80000000
   H     65.80000000    39.79000000    19.36000000
   N     65.43000000    44.26000000    20.68000000
   C     65.66000000    45.64000000    21.09000000
   C     67.14000000    45.97000000    21.18000000
   O     67.93000000    45.25000000    21.78000000
   C     64.87000000    46.02000000    22.34000000
   C     63.41000000    45.59000000    22.22000000
   C     64.90000000    47.50000000    22.69000000
   C     62.72000000    45.57000000    23.58000000
   H     65.18000000    43.55000000    21.36000000
   H     65.29000000    46.31000000    20.31000000
   H     65.34000000    45.54000000    23.20000000
   H     63.27000000    44.56000000    21.89000000
   H     62.93000000    46.16000000    21.43000000
   H     65.91000000    47.89000000    22.55000000
   H     64.24000000    47.93000000    21.94000000
   H     64.44000000    47.71000000    23.66000000
   H     62.57000000    46.58000000    23.98000000
   H     61.76000000    45.06000000    23.50000000
   H     63.37000000    44.96000000    24.21000000
   N     67.41000000    47.16000000    20.63000000
   C     68.67000000    47.87000000    20.67000000
   C     68.56000000    49.24000000    21.32000000
   O     67.46000000    49.79000000    21.45000000
   C     69.45000000    47.91000000    19.36000000
   C     68.57000000    48.36000000    18.19000000
   O     68.76000000    49.47000000    17.66000000
   O     67.86000000    47.53000000    17.58000000
   H     66.67000000    47.65000000    20.16000000
   H     69.31000000    47.31000000    21.36000000
   H     69.84000000    46.91000000    19.21000000
   H     70.31000000    48.58000000    19.37000000
   N     69.65000000    49.84000000    21.79000000
   C     69.62000000    51.05000000    22.60000000
   C     68.89000000    52.19000000    21.91000000
   O     68.13000000    52.87000000    22.60000000
   C     71.00000000    51.34000000    23.19000000
   C     70.90000000    52.29000000    24.36000000
   C     71.45000000    53.57000000    24.20000000
   C     70.31000000    51.98000000    25.59000000
   C     71.43000000    54.49000000    25.25000000
   C     70.34000000    52.86000000    26.67000000
   C     70.88000000    54.14000000    26.50000000
   H     70.53000000    49.39000000    21.61000000
   H     68.96000000    50.82000000    23.44000000
   H     71.65000000    51.78000000    22.44000000
   H     71.46000000    50.45000000    23.62000000
   H     71.90000000    53.86000000    23.26000000
   H     70.03000000    50.94000000    25.66000000
   H     71.87000000    55.47000000    25.16000000
   H     70.02000000    52.61000000    27.68000000
   H     70.93000000    54.79000000    27.36000000
   N     69.10000000    52.50000000    20.63000000
   C     68.27000000    53.50000000    19.99000000
   C     66.77000000    53.30000000    20.13000000
   O     66.02000000    54.16000000    20.59000000
   C     68.70000000    53.51000000    18.52000000
   C     70.01000000    52.74000000    18.43000000
   C     69.98000000    51.85000000    19.68000000
   H     68.52000000    54.50000000    20.35000000
   H     67.97000000    52.85000000    18.06000000
   H     68.71000000    54.50000000    18.05000000
   H     70.02000000    52.15000000    17.51000000
   H     70.91000000    53.35000000    18.45000000
   H     69.56000000    50.88000000    19.43000000
   H     71.01000000    51.71000000    20.02000000
   N     66.36000000    52.04000000    19.96000000
   C     65.00000000    51.58000000    20.13000000
   C     64.50000000    51.66000000    21.57000000
   O     63.42000000    52.19000000    21.80000000
   C     64.83000000    50.19000000    19.50000000
   C     64.87000000    50.19000000    17.98000000
   C     64.76000000    48.75000000    17.50000000
   O     64.71000000    48.41000000    16.29000000
   O     64.75000000    47.78000000    18.28000000
   H     67.09000000    51.42000000    19.64000000
   H     64.39000000    52.20000000    19.48000000
   H     63.88000000    49.76000000    19.83000000
   H     65.61000000    49.55000000    19.90000000
   H     65.76000000    50.68000000    17.59000000
   H     64.00000000    50.72000000    17.59000000
   N     65.19000000    51.13000000    22.58000000
   C     65.06000000    51.43000000    23.99000000
   H     64.00400000    51.46800000    24.25700000
   H     65.55400000    50.65400000    24.57400000
   H     65.52200000    52.39400000    24.20100000
   H     66.02000000    50.69000000    22.21000000
  Ca     65.95000000    46.15000000    16.57000000

Ca 1.70



