%chk=loop2.cluster74.chk
%nprocshared=48
%mem=10GB
%nosave
#b3lyp/svp scf=(tight,noincore) Test 
#IOP(5/87=12) Density=Current Pop=(MK,readradii) iop(6/33=2) iop(6/42=6)

loop2.cluster74 

   -2  1 
   C     74.87000000   103.19000000    -6.10000000
   C     74.74000000   104.70000000    -6.20000000
   O     75.29000000   105.46000000    -5.41000000
   H     75.76900000   102.94000000    -5.53600000
   H     73.99700000   102.78300000    -5.59000000
   H     74.93900000   102.76400000    -7.10100000
   N     73.95000000   105.24000000    -7.13000000
   C     73.55000000   106.63000000    -7.21000000
   C     72.16000000   107.00000000    -7.70000000
   O     71.23000000   107.54000000    -7.10000000
   C     74.67000000   107.39000000    -7.91000000
   C     74.46000000   108.89000000    -8.06000000
   O     74.76000000   109.43000000    -9.15000000
   O     74.04000000   109.63000000    -7.15000000
   H     73.42000000   104.60000000    -7.71000000
   H     73.52000000   106.97000000    -6.18000000
   H     74.71000000   106.96000000    -8.91000000
   H     75.64000000   107.33000000    -7.42000000
   N     71.99000000   106.64000000    -8.98000000
   C     70.81000000   106.85000000    -9.80000000
   C     69.47000000   106.64000000    -9.11000000
   O     68.53000000   107.43000000    -9.23000000
   C     70.98000000   108.16000000   -10.56000000
   H     72.79000000   106.17000000    -9.38000000
   H     70.86000000   106.04000000   -10.52000000
   H     70.27000000   108.17000000   -11.39000000
   H     70.68000000   109.05000000    -9.99000000
   H     71.96000000   108.26000000   -11.01000000
   N     69.37000000   105.61000000    -8.26000000
   C     68.28000000   105.15000000    -7.42000000
   C     67.58000000   106.37000000    -6.84000000
   O     66.37000000   106.40000000    -6.64000000
   C     67.33000000   104.33000000    -8.28000000
   C     67.99000000   103.32000000    -9.20000000
   O     67.38000000   102.92000000   -10.21000000
   O     68.98000000   102.64000000    -8.84000000
   H     70.18000000   105.02000000    -8.23000000
   H     68.64000000   104.48000000    -6.64000000
   H     66.79000000   105.02000000    -8.93000000
   H     66.60000000   103.87000000    -7.61000000
   N     68.24000000   107.44000000    -6.38000000
   C     67.65000000   108.49000000    -5.58000000
   C     67.32000000   108.10000000    -4.14000000
   O     67.81000000   107.09000000    -3.66000000
   H     69.23000000   107.47000000    -6.57000000
   H     66.82000000   109.00000000    -6.07000000
   H     68.37000000   109.30000000    -5.51000000
   N     66.28000000   108.74000000    -3.59000000
   C     65.48000000   108.23000000    -2.50000000
   C     66.26000000   107.85000000    -1.25000000
   O     65.80000000   107.10000000    -0.39000000
   C     64.34000000   107.32000000    -2.96000000
   C     63.52000000   108.03000000    -4.03000000
   N     63.47000000   107.58000000    -5.29000000
   O     62.74000000   108.93000000    -3.73000000
   H     65.99000000   109.49000000    -4.21000000
   H     64.99000000   109.15000000    -2.19000000
   H     63.71000000   107.07000000    -2.11000000
   H     64.80000000   106.39000000    -3.31000000
   H     64.10000000   106.81000000    -5.48000000
   H     62.83000000   108.00000000    -5.95000000
   N     67.48000000   108.40000000    -1.18000000
   C     68.35000000   108.34000000    -0.02000000
   C     69.50000000   107.35000000    -0.10000000
   O     70.32000000   107.40000000     0.82000000
   H     67.79000000   108.99000000    -1.94000000
   H     67.80000000   108.24000000     0.92000000
   H     68.84000000   109.31000000    -0.02000000
   N     69.60000000   106.58000000    -1.18000000
   C     70.78000000   105.77000000    -1.38000000
   C     70.30000000   104.34000000    -1.14000000
   O     69.18000000   103.96000000    -1.47000000
   C     71.37000000   106.01000000    -2.77000000
   C     71.57000000   107.51000000    -3.00000000
   O     72.59000000   105.37000000    -3.03000000
   H     68.92000000   106.39000000    -1.91000000
   H     71.53000000   106.12000000    -0.68000000
   H     70.62000000   105.56000000    -3.43000000
   H     73.19000000   105.58000000    -2.30000000
   H     70.61000000   108.02000000    -3.00000000
   H     72.31000000   107.82000000    -2.27000000
   H     71.97000000   107.79000000    -3.98000000
   N     71.26000000   103.48000000    -0.79000000
   C     71.10000000   102.04000000    -0.68000000
   C     70.66000000   101.49000000    -2.03000000
   O     71.13000000   101.94000000    -3.07000000
   C     72.47000000   101.54000000    -0.24000000
   C     73.60000000   101.77000000    -1.24000000
   C     72.90000000   102.00000000     1.15000000
   C     74.93000000   101.12000000    -0.87000000
   H     72.20000000   103.81000000    -0.64000000
   H     70.36000000   101.82000000     0.09000000
   H     72.34000000   100.46000000    -0.15000000
   H     73.77000000   102.79000000    -1.56000000
   H     73.39000000   101.21000000    -2.15000000
   H     72.00000000   101.85000000     1.76000000
   H     73.71000000   101.40000000     1.56000000
   H     73.37000000   102.99000000     1.14000000
   H     75.36000000   101.43000000     0.09000000
   H     74.90000000   100.03000000    -0.93000000
   H     75.68000000   101.44000000    -1.59000000
   N     69.93000000   100.38000000    -1.92000000
   C     69.39000000    99.64000000    -3.05000000
   C     68.02000000    99.03000000    -2.81000000
   O     67.77000000    97.92000000    -2.34000000
   C     70.43000000    98.65000000    -3.58000000
   C     70.18000000    98.09000000    -4.97000000
   O     69.52000000    98.79000000    -5.77000000
   O     70.55000000    96.92000000    -5.20000000
   H     69.80000000   100.08000000    -0.96000000
   H     69.33000000   100.35000000    -3.87000000
   H     70.39000000    97.79000000    -2.91000000
   H     71.47000000    98.96000000    -3.47000000
   N     67.07000000    99.94000000    -3.04000000
   C     65.71000000    99.61000000    -2.66000000
   C     64.87000000   100.87000000    -2.50000000
   O     64.14000000   101.20000000    -3.44000000
   C     65.09000000    98.58000000    -3.61000000
   C     64.05000000    97.64000000    -3.07000000
   C     62.70000000    97.78000000    -3.43000000
   C     64.48000000    96.47000000    -2.43000000
   C     61.74000000    96.86000000    -2.99000000
   C     63.55000000    95.55000000    -1.93000000
   C     62.20000000    95.80000000    -2.19000000
   H     67.29000000   100.84000000    -3.43000000
   H     65.78000000    99.13000000    -1.69000000
   H     65.90000000    97.96000000    -4.00000000
   H     64.62000000    99.00000000    -4.50000000
   H     62.44000000    98.56000000    -4.14000000
   H     65.54000000    96.34000000    -2.27000000
   H     60.70000000    96.94000000    -3.25000000
   H     63.89000000    94.71000000    -1.36000000
   H     61.40000000    95.28000000    -1.70000000
   N     65.04000000   101.72000000    -1.49000000
   C     65.75000000   101.44000000    -0.26000000
   C     65.43000000   100.19000000     0.55000000
   O     66.34000000    99.37000000     0.67000000
   C     65.72000000   102.76000000     0.51000000
   C     65.35000000   103.78000000    -0.56000000
   C     64.42000000   103.03000000    -1.51000000
   H     66.79000000   101.36000000    -0.59000000
   H     65.05000000   102.70000000     1.37000000
   H     66.75000000   102.94000000     0.82000000
   H     64.77000000   104.58000000    -0.09000000
   H     66.13000000   104.26000000    -1.16000000
   H     63.39000000   102.89000000    -1.18000000
   H     64.46000000   103.57000000    -2.46000000
   N     64.16000000   100.00000000     0.89000000
   C     63.71000000    98.88000000     1.69000000
   C     64.74000000    98.25000000     2.63000000
   O     65.08000000    97.08000000     2.46000000
   C     63.10000000    97.80000000     0.81000000
   C     61.90000000    98.37000000     0.06000000
   C     60.70000000    98.83000000     0.89000000
   O     59.71000000    98.10000000     1.08000000
   O     60.82000000    99.90000000     1.52000000
   H     63.46000000   100.70000000     0.68000000
   H     62.93000000    99.38000000     2.27000000
   H     62.58000000    97.04000000     1.41000000
   H     63.77000000    97.27000000     0.13000000
   H     61.49000000    97.61000000    -0.60000000
   H     62.24000000    99.20000000    -0.56000000
   N     65.14000000    99.00000000     3.66000000
   C     66.31000000    98.66000000     4.45000000
   H     67.09900000    99.38800000     4.26100000
   H     66.05100000    98.67300000     5.50900000
   H     66.66000000    97.66500000     4.17300000
   H     64.92000000    99.98000000     3.55000000
  Ca     69.58000000   100.45100000    -7.56100000
   O     69.26000000   101.99100000    -5.50100000
   H     69.78000000   102.79100000    -5.45100000
   H     68.62000000   102.07100000    -4.79100000
   O     67.02000000   100.06100000    -7.00100000
   H     66.64000000    99.28100000    -7.40100000
   H     66.28000000   100.51100000    -6.59100000
   O     72.24000000   100.91100000    -5.85100000
   H     72.89000000   100.20100000    -5.80100000
   H     72.29000000   101.34100000    -5.00100000
   O     69.01000000    99.02000000    -9.71100000
   H     69.64000000    98.36000000    -9.98100000
   H     68.19000000    98.75000000   -10.11100000

Ca 1.70



