%chk=loop1.cluster42.chk
%nprocshared=48
%mem=10GB
%nosave
#b3lyp/svp scf=(tight,noincore) Test 
#IOP(5/87=12) Density=Current Pop=(MK,readradii) iop(6/33=2) iop(6/42=6)

loop1.cluster42 

   0  1 
   C     41.40000000    38.07000000    29.02000000
   C     42.03000000    39.35000000    28.49000000
   O     42.91000000    39.44000000    27.63000000
   H     40.41800000    37.93500000    28.56800000
   H     42.03500000    37.22100000    28.76900000
   H     41.29400000    38.13800000    30.10300000
   N     41.53000000    40.45000000    29.07000000
   C     41.95000000    41.81000000    28.79000000
   C     41.88000000    42.11000000    27.30000000
   O     42.76000000    42.82000000    26.82000000
   C     43.34000000    42.02000000    29.37000000
   C     43.70000000    43.49000000    29.50000000
   O     42.87000000    44.25000000    30.05000000
   O     44.86000000    43.83000000    29.17000000
   H     40.89000000    40.25000000    29.82000000
   H     41.19000000    42.43000000    29.27000000
   H     44.20000000    41.48000000    28.97000000
   H     43.40000000    41.68000000    30.41000000
   N     40.83000000    41.70000000    26.58000000
   C     40.73000000    41.83000000    25.14000000
   C     40.27000000    43.21000000    24.71000000
   O     40.52000000    43.69000000    23.60000000
   C     39.99000000    40.63000000    24.55000000
   C     40.54000000    39.22000000    24.79000000
   C     39.84000000    38.25000000    23.84000000
   C     40.13000000    36.81000000    24.24000000
   N     40.53000000    35.99000000    23.09000000
   H     40.11000000    41.13000000    26.99000000
   H     41.73000000    41.80000000    24.71000000
   H     39.82000000    40.87000000    23.50000000
   H     39.00000000    40.63000000    24.99000000
   H     40.47000000    38.94000000    25.84000000
   H     41.62000000    39.22000000    24.65000000
   H     40.04000000    38.46000000    22.79000000
   H     38.77000000    38.29000000    24.02000000
   H     39.26000000    36.28000000    24.64000000
   H     40.93000000    36.86000000    24.98000000
   H     40.65000000    35.03000000    23.39000000
   H     39.89000000    36.08000000    22.31000000
   H     41.43000000    36.23000000    22.70000000
   N     39.65000000    43.98000000    25.61000000
   C     38.89000000    45.13000000    25.17000000
   C     39.78000000    46.37000000    25.17000000
   O     39.51000000    47.30000000    24.41000000
   C     37.68000000    45.33000000    26.08000000
   C     36.63000000    46.38000000    25.73000000
   O     35.75000000    46.63000000    26.58000000
   O     36.85000000    47.05000000    24.70000000
   H     39.47000000    43.54000000    26.50000000
   H     38.59000000    44.96000000    24.14000000
   H     37.95000000    45.50000000    27.12000000
   H     37.21000000    44.35000000    26.07000000
   N     40.83000000    46.35000000    25.99000000
   C     41.72000000    47.48000000    26.21000000
   C     41.15000000    48.55000000    27.13000000
   O     41.84000000    48.89000000    28.09000000
   H     41.01000000    45.51000000    26.52000000
   H     42.03000000    47.95000000    25.27000000
   H     42.65000000    47.06000000    26.57000000
   N     39.83000000    48.69000000    27.06000000
   C     39.06000000    49.54000000    27.96000000
   C     38.67000000    48.95000000    29.30000000
   O     38.15000000    47.83000000    29.41000000
   C     37.71000000    49.82000000    27.30000000
   C     37.61000000    50.73000000    26.08000000
   O     37.29000000    51.93000000    26.26000000
   O     37.87000000    50.24000000    24.96000000
   H     39.30000000    48.29000000    26.31000000
   H     39.51000000    50.52000000    28.06000000
   H     37.11000000    50.30000000    28.07000000
   H     37.27000000    48.87000000    27.00000000
   N     38.66000000    49.80000000    30.33000000
   C     37.90000000    49.61000000    31.55000000
   C     38.50000000    48.73000000    32.64000000
   O     38.55000000    49.15000000    33.79000000
   H     38.89000000    50.74000000    30.06000000
   H     36.91000000    49.20000000    31.32000000
   H     37.71000000    50.56000000    32.05000000
   N     38.97000000    47.51000000    32.36000000
   C     39.55000000    46.55000000    33.29000000
   C     38.49000000    45.90000000    34.17000000
   O     37.31000000    45.91000000    33.82000000
   C     40.50000000    45.57000000    32.61000000
   C     39.77000000    44.61000000    31.68000000
   O     41.49000000    46.22000000    31.85000000
   H     38.88000000    47.23000000    31.40000000
   H     40.14000000    47.15000000    33.98000000
   H     41.11000000    44.95000000    33.27000000
   H     42.03000000    45.47000000    31.59000000
   H     39.12000000    45.20000000    31.02000000
   H     40.51000000    44.10000000    31.07000000
   H     39.25000000    43.83000000    32.23000000
   N     38.88000000    45.32000000    35.30000000
   C     38.00000000    44.71000000    36.29000000
   C     38.25000000    45.20000000    37.70000000
   O     37.51000000    44.88000000    38.63000000
   C     38.06000000    43.19000000    36.18000000
   C     39.46000000    42.63000000    36.41000000
   C     37.51000000    42.65000000    34.86000000
   C     39.63000000    41.12000000    36.55000000
   H     39.87000000    45.33000000    35.51000000
   H     36.94000000    44.85000000    36.08000000
   H     37.41000000    42.72000000    36.91000000
   H     39.81000000    42.99000000    37.37000000
   H     40.12000000    43.07000000    35.66000000
   H     36.44000000    42.85000000    34.78000000
   H     38.09000000    43.06000000    34.02000000
   H     37.57000000    41.57000000    34.79000000
   H     39.54000000    40.59000000    35.59000000
   H     40.61000000    40.80000000    36.91000000
   H     38.84000000    40.78000000    37.21000000
   N     39.25000000    46.05000000    37.95000000
   C     39.55000000    46.74000000    39.18000000
   C     40.97000000    46.45000000    39.64000000
   O     41.67000000    45.65000000    39.02000000
   C     39.19000000    48.23000000    39.13000000
   C     39.80000000    49.00000000    37.97000000
   O     37.80000000    48.44000000    39.07000000
   H     39.77000000    46.26000000    37.10000000
   H     38.89000000    46.29000000    39.92000000
   H     39.51000000    48.68000000    40.07000000
   H     37.69000000    49.00000000    39.83000000
   H     40.09000000    48.31000000    37.18000000
   H     39.09000000    49.70000000    37.53000000
   H     40.70000000    49.46000000    38.39000000
   N     41.51000000    47.00000000    40.73000000
   C     42.84000000    46.82000000    41.27000000
   C     42.80000000    46.61000000    42.78000000
   O     43.64000000    45.87000000    43.29000000
   C     43.67000000    48.01000000    40.81000000
   C     45.06000000    48.15000000    41.42000000
   O     43.03000000    49.20000000    41.23000000
   H     41.01000000    47.73000000    41.22000000
   H     43.32000000    45.92000000    40.89000000
   H     43.74000000    47.86000000    39.74000000
   H     42.97000000    49.69000000    40.41000000
   H     44.92000000    48.48000000    42.44000000
   H     45.61000000    47.21000000    41.36000000
   H     45.62000000    48.96000000    40.95000000
   N     41.85000000    47.16000000    43.53000000
   C     41.65000000    46.97000000    44.95000000
   C     40.23000000    46.52000000    45.27000000
   O     39.28000000    47.04000000    44.68000000
   C     42.20000000    48.16000000    45.74000000
   C     42.43000000    47.79000000    47.20000000
   C     43.13000000    48.91000000    47.96000000
   C     42.42000000    50.26000000    48.05000000
   N     43.09000000    51.29000000    48.87000000
   H     41.32000000    47.89000000    43.07000000
   H     42.26000000    46.12000000    45.25000000
   H     41.68000000    49.12000000    45.68000000
   H     43.19000000    48.39000000    45.36000000
   H     43.03000000    46.90000000    47.36000000
   H     41.45000000    47.58000000    47.62000000
   H     44.12000000    48.99000000    47.52000000
   H     43.49000000    48.59000000    48.94000000
   H     41.44000000    50.05000000    48.48000000
   H     42.35000000    50.67000000    47.04000000
   H     42.96000000    51.18000000    49.86000000
   H     44.06000000    51.31000000    48.61000000
   H     42.88000000    52.24000000    48.58000000
   N     39.99000000    45.45000000    46.02000000
   C     38.67000000    45.06000000    46.46000000
   C     37.63000000    44.78000000    45.38000000
   O     36.54000000    45.34000000    45.47000000
   C     38.66000000    44.06000000    47.62000000
   C     37.26000000    43.57000000    47.97000000
   C     36.48000000    44.74000000    48.56000000
   O     37.07000000    45.75000000    48.99000000
   O     35.27000000    44.48000000    48.75000000
   H     40.77000000    44.94000000    46.41000000
   H     38.23000000    45.97000000    46.86000000
   H     39.24000000    44.52000000    48.42000000
   H     39.24000000    43.20000000    47.29000000
   H     37.28000000    42.77000000    48.71000000
   H     36.65000000    43.29000000    47.11000000
   N     37.91000000    43.99000000    44.34000000
   C     39.02000000    43.18000000    43.88000000
   H     39.88500000    43.35300000    44.52000000
   H     38.74300000    42.12600000    43.92100000
   H     39.26800000    43.45100000    42.85400000
   H     37.06000000    43.81000000    43.83000000
  Ca     38.18000000    48.89000000    22.79000000
   O     35.54000000    49.76000000    22.62000000
   H     35.03000000    48.98000000    22.84000000
   H     35.23000000    50.01000000    21.74000000
   O     37.86000000    49.49000000    20.13000000
   H     38.71000000    49.79000000    19.80000000
   H     37.33000000    49.36000000    19.35000000
   O     37.81000000    51.41000000    22.28000000
   H     37.53000000    52.04000000    21.63000000
   H     38.36000000    51.91000000    22.88000000
   O     40.33000000    50.60000000    22.77000000
   H     41.23000000    50.62000000    23.09000000
   H     40.40000000    50.65000000    21.82000000
   O     40.22000000    47.45000000    21.72000000
   H     40.87000000    47.18000000    22.37000000
   H     39.97000000    46.64000000    21.28000000
   O     37.35000000    46.80000000    21.36000000
   H     37.74000000    45.95000000    21.58000000
   H     37.38000000    46.84000000    20.40000000

Ca 1.70



