%chk=loop2.cluster127.chk
%nprocshared=48
%mem=10GB
%nosave
#b3lyp/svp scf=(tight,noincore) Test 
#IOP(5/87=12) Density=Current Pop=(MK,readradii) iop(6/33=2) iop(6/42=6)

loop2.cluster127 

   -2  1 
   C    118.89000000    -0.37000000    83.52000000
   C    119.52000000    -0.03000000    84.86000000
   O    119.59000000     1.16000000    85.18000000
   H    117.99400000     0.23400000    83.37600000
   H    119.60100000    -0.16100000    82.72000000
   H    118.62200000    -1.42600000    83.50200000
   N    120.01000000    -0.94000000    85.70000000
   C    120.67000000    -0.61000000    86.95000000
   C    119.81000000    -0.14000000    88.12000000
   O    120.30000000     0.04000000    89.23000000
   C    121.44000000    -1.87000000    87.32000000
   C    122.76000000    -1.56000000    88.03000000
   O    123.05000000    -2.32000000    88.98000000
   O    123.41000000    -0.53000000    87.75000000
   H    119.78000000    -1.90000000    85.47000000
   H    121.33000000     0.22000000    86.71000000
   H    121.78000000    -2.48000000    86.49000000
   H    120.81000000    -2.50000000    87.95000000
   N    118.54000000     0.18000000    87.85000000
   C    117.67000000     0.85000000    88.80000000
   C    116.23000000     0.41000000    88.59000000
   O    115.69000000     0.38000000    87.49000000
   C    117.83000000     2.34000000    88.55000000
   H    118.28000000     0.19000000    86.88000000
   H    117.99000000     0.77000000    89.84000000
   H    117.62000000     2.63000000    87.52000000
   H    117.18000000     2.98000000    89.15000000
   H    118.84000000     2.62000000    88.85000000
   N    115.46000000     0.19000000    89.66000000
   C    115.78000000     0.17000000    91.07000000
   C    115.35000000    -1.17000000    91.63000000
   O    114.16000000    -1.39000000    91.86000000
   C    115.05000000     1.28000000    91.82000000
   C    115.45000000     1.46000000    93.28000000
   O    116.59000000     1.13000000    93.67000000
   O    114.64000000     1.96000000    94.09000000
   H    114.50000000     0.01000000    89.40000000
   H    116.85000000     0.14000000    91.25000000
   H    113.98000000     1.14000000    91.71000000
   H    115.30000000     2.23000000    91.33000000
   N    116.29000000    -2.10000000    91.82000000
   C    116.07000000    -3.38000000    92.46000000
   C    117.31000000    -4.27000000    92.46000000
   O    118.40000000    -3.76000000    92.20000000
   H    117.10000000    -2.04000000    91.22000000
   H    115.14000000    -3.84000000    92.14000000
   H    115.83000000    -3.19000000    93.51000000
   N    117.33000000    -5.52000000    92.93000000
   C    116.26000000    -6.19000000    93.63000000
   C    115.27000000    -6.89000000    92.71000000
   O    115.66000000    -7.55000000    91.75000000
   C    116.84000000    -7.04000000    94.76000000
   C    115.88000000    -7.62000000    95.79000000
   N    116.13000000    -7.34000000    97.07000000
   O    114.91000000    -8.33000000    95.57000000
   H    118.26000000    -5.91000000    92.91000000
   H    115.70000000    -5.42000000    94.17000000
   H    117.55000000    -6.39000000    95.28000000
   H    117.48000000    -7.85000000    94.43000000
   H    116.82000000    -6.67000000    97.38000000
   H    115.43000000    -7.66000000    97.72000000
   N    113.99000000    -6.74000000    93.05000000
   C    112.97000000    -7.65000000    92.56000000
   C    111.58000000    -7.08000000    92.32000000
   O    110.78000000    -7.78000000    91.71000000
   H    113.86000000    -6.10000000    93.82000000
   H    112.93000000    -8.46000000    93.28000000
   H    113.36000000    -7.93000000    91.58000000
   N    111.31000000    -5.88000000    92.84000000
   C    110.00000000    -5.27000000    92.87000000
   C    110.18000000    -3.80000000    92.50000000
   O    111.04000000    -3.11000000    93.04000000
   C    109.41000000    -5.48000000    94.26000000
   C    108.65000000    -6.79000000    94.42000000
   O    110.31000000    -5.39000000    95.33000000
   H    112.00000000    -5.39000000    93.40000000
   H    109.38000000    -5.71000000    92.09000000
   H    108.60000000    -4.77000000    94.41000000
   H    110.75000000    -4.54000000    95.24000000
   H    107.91000000    -6.89000000    93.62000000
   H    109.35000000    -7.63000000    94.49000000
   H    108.06000000    -6.64000000    95.33000000
   N    109.31000000    -3.29000000    91.62000000
   C    109.43000000    -2.07000000    90.84000000
   C    108.08000000    -1.37000000    90.81000000
   O    107.08000000    -2.08000000    90.90000000
   C    110.12000000    -2.31000000    89.50000000
   C    111.63000000    -2.18000000    89.69000000
   C    109.73000000    -3.59000000    88.77000000
   C    112.39000000    -1.88000000    88.41000000
   H    108.61000000    -3.97000000    91.35000000
   H    110.05000000    -1.47000000    91.50000000
   H    109.77000000    -1.47000000    88.88000000
   H    112.12000000    -2.92000000    90.32000000
   H    111.72000000    -1.36000000    90.40000000
   H    110.04000000    -4.47000000    89.32000000
   H    108.65000000    -3.51000000    88.65000000
   H    110.04000000    -3.53000000    87.73000000
   H    111.96000000    -0.95000000    88.04000000
   H    113.39000000    -1.56000000    88.67000000
   H    112.47000000    -2.69000000    87.67000000
   N    107.94000000    -0.04000000    90.77000000
   C    106.71000000     0.71000000    90.91000000
   C    106.74000000     1.99000000    90.09000000
   O    107.77000000     2.66000000    90.02000000
   C    106.42000000     1.08000000    92.36000000
   C    107.59000000     1.15000000    93.33000000
   O    108.10000000     0.12000000    93.83000000
   O    108.17000000     2.25000000    93.45000000
   H    108.79000000     0.49000000    90.88000000
   H    105.86000000     0.13000000    90.52000000
   H    105.67000000     0.37000000    92.69000000
   H    105.78000000     1.95000000    92.52000000
   N    105.60000000     2.42000000    89.55000000
   C    105.34000000     3.67000000    88.86000000
   C    106.31000000     3.78000000    87.69000000
   O    106.36000000     2.95000000    86.78000000
   C    103.89000000     3.78000000    88.41000000
   C    103.45000000     5.09000000    87.81000000
   C    103.89000000     5.45000000    86.53000000
   C    102.52000000     5.93000000    88.44000000
   C    103.49000000     6.64000000    85.90000000
   C    102.13000000     7.10000000    87.78000000
   C    102.66000000     7.55000000    86.56000000
   H    104.79000000     1.82000000    89.65000000
   H    105.64000000     4.45000000    89.55000000
   H    103.23000000     3.59000000    89.26000000
   H    103.79000000     3.06000000    87.59000000
   H    104.57000000     4.80000000    86.00000000
   H    102.08000000     5.64000000    89.38000000
   H    103.82000000     6.79000000    84.89000000
   H    101.35000000     7.74000000    88.13000000
   H    102.34000000     8.47000000    86.11000000
   N    106.98000000     4.92000000    87.52000000
   C    108.04000000     5.12000000    86.56000000
   C    109.16000000     4.08000000    86.48000000
   O    109.81000000     4.05000000    85.43000000
   C    108.73000000     6.41000000    86.99000000
   C    107.67000000     7.25000000    87.70000000
   C    106.81000000     6.14000000    88.29000000
   H    107.63000000     5.15000000    85.55000000
   H    109.57000000     6.17000000    87.64000000
   H    109.05000000     6.93000000    86.09000000
   H    108.11000000     7.88000000    88.48000000
   H    107.12000000     7.74000000    86.90000000
   H    107.12000000     6.06000000    89.33000000
   H    105.75000000     6.35000000    88.22000000
   N    109.43000000     3.20000000    87.44000000
   C    110.63000000     2.38000000    87.39000000
   C    110.35000000     1.34000000    86.32000000
   O    111.26000000     1.08000000    85.53000000
   C    110.87000000     1.87000000    88.81000000
   C    111.10000000     2.89000000    89.92000000
   C    110.98000000     2.27000000    91.30000000
   O    111.55000000     2.87000000    92.23000000
   O    110.40000000     1.20000000    91.59000000
   H    108.94000000     3.14000000    88.32000000
   H    111.44000000     3.03000000    87.06000000
   H    111.68000000     1.15000000    88.83000000
   H    109.93000000     1.35000000    89.04000000
   H    110.36000000     3.69000000    89.80000000
   H    112.10000000     3.30000000    89.76000000
   N    109.13000000     0.81000000    86.25000000
   C    108.69000000     0.01000000    85.12000000
   H    107.80600000     0.46600000    84.67500000
   H    109.48600000    -0.03900000    84.37700000
   H    108.44700000    -0.99700000    85.46000000
   H    108.51000000     1.18000000    86.96000000
  Ca    110.49800000     1.42000000    94.12000000
   O    112.69800000     1.32000000    95.60000000
   H    112.90800000     1.00000000    96.47000000
   H    113.48800000     1.77000000    95.31000000
   O    109.95800000    -1.23800000    95.33000000
   H    110.25800000    -1.74800000    96.08000000
   H    109.08800000    -1.59800000    95.13000000
   O    112.00800000    -0.61800000    93.19000000
   H    111.58800000    -1.47800000    93.30000000
   H    112.66800000    -0.76800000    92.52000000
   O    110.57800000     3.87000000    94.99000000
   H    109.73800000     4.32000000    95.00000000
   H    111.01800000     4.16000000    95.79000000

Ca 1.70



