%chk=loop3.cluster12.chk
%nprocshared=48
%mem=10GB
%nosave
#b3lyp/svp scf=(tight,noincore) Test 
#IOP(5/87=12) Density=Current Pop=(MK,readradii) iop(6/33=2) iop(6/42=6)

loop3.cluster12 

   0  1 
   C     77.60000000    56.18000000    21.16000000
   C     77.35000000    54.77000000    20.65000000
   O     78.07000000    54.17000000    19.85000000
   H     78.47700000    56.59500000    20.66400000
   H     76.73300000    56.80400000    20.94500000
   H     77.77100000    56.15300000    22.23600000
   N     76.22000000    54.20000000    21.07000000
   C     75.73000000    52.87000000    20.75000000
   C     75.47000000    52.63000000    19.27000000
   O     74.52000000    53.15000000    18.68000000
   C     74.51000000    52.48000000    21.58000000
   C     74.06000000    51.03000000    21.51000000
   O     73.07000000    50.71000000    22.21000000
   O     74.62000000    50.22000000    20.74000000
   H     75.70000000    54.65000000    21.81000000
   H     76.53000000    52.19000000    21.04000000
   H     73.67000000    53.16000000    21.41000000
   H     74.82000000    52.70000000    22.60000000
   N     76.27000000    51.76000000    18.64000000
   C     76.51000000    51.80000000    17.22000000
   C     75.34000000    51.13000000    16.52000000
   O     74.96000000    51.54000000    15.42000000
   C     77.90000000    51.25000000    16.90000000
   C     78.09000000    51.12000000    15.39000000
   C     79.53000000    50.86000000    14.95000000
   C     80.00000000    49.42000000    15.15000000
   N     81.44000000    49.35000000    14.87000000
   H     76.95000000    51.48000000    19.33000000
   H     76.41000000    52.82000000    16.84000000
   H     78.08000000    50.31000000    17.41000000
   H     78.61000000    52.03000000    17.18000000
   H     77.80000000    52.06000000    14.93000000
   H     77.45000000    50.32000000    15.02000000
   H     80.20000000    51.53000000    15.49000000
   H     79.68000000    51.21000000    13.93000000
   H     79.39000000    48.81000000    14.48000000
   H     79.81000000    49.09000000    16.17000000
   H     81.64000000    49.67000000    13.93000000
   H     81.96000000    50.04000000    15.41000000
   H     81.85000000    48.44000000    15.00000000
   N     74.73000000    50.10000000    17.11000000
   C     73.51000000    49.49000000    16.60000000
   C     72.29000000    49.80000000    17.45000000
   O     71.21000000    49.59000000    16.90000000
   C     73.74000000    47.99000000    16.39000000
   C     74.22000000    47.15000000    17.57000000
   O     74.31000000    45.92000000    17.38000000
   O     74.45000000    47.70000000    18.67000000
   H     75.09000000    49.88000000    18.03000000
   H     73.20000000    49.82000000    15.62000000
   H     74.51000000    47.90000000    15.63000000
   H     72.91000000    47.47000000    15.92000000
   N     72.43000000    50.37000000    18.65000000
   C     71.34000000    50.80000000    19.51000000
   C     70.73000000    49.61000000    20.24000000
   O     69.73000000    49.78000000    20.94000000
   H     73.31000000    50.74000000    18.96000000
   H     70.55000000    51.26000000    18.91000000
   H     71.68000000    51.55000000    20.22000000
   N     71.45000000    48.49000000    20.38000000
   C     70.99000000    47.37000000    21.17000000
   C     71.00000000    47.55000000    22.68000000
   O     70.51000000    46.68000000    23.39000000
   C     71.71000000    46.09000000    20.73000000
   C     73.10000000    46.01000000    21.35000000
   N     73.46000000    44.73000000    21.45000000
   O     73.84000000    46.96000000    21.60000000
   H     72.32000000    48.33000000    19.91000000
   H     69.91000000    47.21000000    21.05000000
   H     71.77000000    46.01000000    19.65000000
   H     71.19000000    45.20000000    21.09000000
   H     72.93000000    43.95000000    21.08000000
   H     74.39000000    44.59000000    21.82000000
   N     71.58000000    48.66000000    23.14000000
   C     71.44000000    49.07000000    24.52000000
   C     72.71000000    49.09000000    25.36000000
   O     72.66000000    49.30000000    26.57000000
   H     72.09000000    49.27000000    22.52000000
   H     70.67000000    48.47000000    25.01000000
   H     71.12000000    50.10000000    24.68000000
   N     73.81000000    48.71000000    24.71000000
   C     75.09000000    48.35000000    25.29000000
   C     76.23000000    49.01000000    24.52000000
   O     76.22000000    48.97000000    23.29000000
   C     75.31000000    46.85000000    25.23000000
   C     74.28000000    46.12000000    26.06000000
   C     74.57000000    45.87000000    27.41000000
   C     73.09000000    45.69000000    25.46000000
   C     73.70000000    45.13000000    28.21000000
   C     72.20000000    44.94000000    26.24000000
   C     72.48000000    44.75000000    27.61000000
   O     71.57000000    44.12000000    28.41000000
   H     73.77000000    48.56000000    23.71000000
   H     75.08000000    48.71000000    26.32000000
   H     76.32000000    46.60000000    25.54000000
   H     75.24000000    46.53000000    24.19000000
   H     75.45000000    46.33000000    27.84000000
   H     72.86000000    45.93000000    24.43000000
   H     73.99000000    44.87000000    29.22000000
   H     71.23000000    44.64000000    25.89000000
   H     70.79000000    43.84000000    27.92000000
   N     77.27000000    49.51000000    25.18000000
   C     78.46000000    50.19000000    24.70000000
   C     79.77000000    49.46000000    24.94000000
   O     79.91000000    48.71000000    25.91000000
   C     78.44000000    51.62000000    25.24000000
   C     77.41000000    52.48000000    24.51000000
   C     79.77000000    52.36000000    25.30000000
   C     77.06000000    53.78000000    25.24000000
   H     77.19000000    49.51000000    26.19000000
   H     78.41000000    50.27000000    23.62000000
   H     78.08000000    51.55000000    26.27000000
   H     76.44000000    52.00000000    24.43000000
   H     77.91000000    52.74000000    23.58000000
   H     79.63000000    53.35000000    25.72000000
   H     80.40000000    51.89000000    26.05000000
   H     80.33000000    52.34000000    24.36000000
   H     77.93000000    54.42000000    25.34000000
   H     76.25000000    54.18000000    24.63000000
   H     76.68000000    53.45000000    26.21000000
   N     80.73000000    49.79000000    24.07000000
   C     82.08000000    49.27000000    24.16000000
   C     83.13000000    50.37000000    24.12000000
   O     82.84000000    51.51000000    23.76000000
   C     82.34000000    48.21000000    23.09000000
   O     82.05000000    48.85000000    21.86000000
   H     80.49000000    50.40000000    23.31000000
   H     82.23000000    48.79000000    25.13000000
   H     81.76000000    47.29000000    23.21000000
   H     83.36000000    47.86000000    23.17000000
   H     81.09000000    48.89000000    21.87000000
   N     84.39000000    50.08000000    24.47000000
   C     85.47000000    50.99000000    24.13000000
   C     85.54000000    51.35000000    22.66000000
   O     85.82000000    52.51000000    22.35000000
   C     86.80000000    50.40000000    24.60000000
   H     84.57000000    49.16000000    24.85000000
   H     85.33000000    51.92000000    24.68000000
   H     87.64000000    50.93000000    24.15000000
   H     86.85000000    50.37000000    25.69000000
   H     86.93000000    49.39000000    24.22000000
   N     85.40000000    50.39000000    21.74000000
   C     85.28000000    50.72000000    20.34000000
   C     84.21000000    51.76000000    20.02000000
   O     84.42000000    52.66000000    19.22000000
   C     85.01000000    49.41000000    19.59000000
   H     85.30000000    49.44000000    22.06000000
   H     86.29000000    51.02000000    20.06000000
   H     84.11000000    49.00000000    20.04000000
   H     84.83000000    49.60000000    18.53000000
   H     85.82000000    48.70000000    19.75000000
   N     83.05000000    51.67000000    20.67000000
   C     81.94000000    52.58000000    20.51000000
   C     82.17000000    53.93000000    21.18000000
   O     81.65000000    54.90000000    20.64000000
   C     80.62000000    51.97000000    20.97000000
   C     80.02000000    51.04000000    19.92000000
   C     79.04000000    50.16000000    20.69000000
   O     79.46000000    49.27000000    21.47000000
   O     77.81000000    50.18000000    20.48000000
   H     82.94000000    50.81000000    21.19000000
   H     81.83000000    52.85000000    19.46000000
   H     79.96000000    52.81000000    21.17000000
   H     80.84000000    51.58000000    21.96000000
   H     80.83000000    50.46000000    19.49000000
   H     79.49000000    51.47000000    19.07000000
   N     82.87000000    54.01000000    22.32000000
   C     83.07000000    55.29000000    22.97000000
   H     83.90200000    55.81100000    22.49700000
   H     82.16500000    55.89100000    22.87700000
   H     83.29400000    55.13100000    24.02500000
   H     83.12000000    53.13000000    22.75000000
  Ca     76.02000000    48.22000000    20.59000000
   O     77.71000000    48.00000000    18.35000000
   H     77.66000000    47.85000000    17.41000000
   H     78.54000000    47.62000000    18.62000000
   O     75.98000000    45.56000000    20.08000000
   H     75.41000000    45.36000000    19.33000000
   H     76.49000000    44.76000000    20.21000000
   O     78.00000000    47.05000000    21.92000000
   H     78.63000000    47.77000000    21.86000000
   H     78.49000000    46.33000000    22.31000000

Ca 1.70



