%chk=loop3.cluster13.chk
%nprocshared=48
%mem=10GB
%nosave
#b3lyp/svp scf=(tight,noincore) Test 
#IOP(5/87=12) Density=Current Pop=(MK,readradii) iop(6/33=2) iop(6/42=6)

loop3.cluster13 

   0  1 
   C     75.19000000    56.80000000    23.21000000
   C     75.00000000    55.33000000    22.87000000
   O     75.94000000    54.55000000    22.86000000
   H     76.06600000    57.18300000    22.68700000
   H     74.30900000    57.36200000    22.90100000
   H     75.33200000    56.90900000    24.28500000
   N     73.76000000    54.84000000    22.78000000
   C     73.39000000    53.47000000    22.48000000
   C     73.74000000    52.97000000    21.09000000
   O     73.12000000    53.41000000    20.12000000
   C     71.91000000    53.38000000    22.83000000
   C     71.29000000    52.04000000    22.44000000
   O     70.05000000    51.93000000    22.43000000
   O     71.99000000    51.06000000    22.12000000
   H     72.98000000    55.48000000    22.80000000
   H     74.03000000    52.93000000    23.18000000
   H     71.33000000    54.15000000    22.33000000
   H     71.83000000    53.52000000    23.91000000
   N     74.75000000    52.11000000    20.92000000
   C     75.39000000    52.02000000    19.62000000
   C     74.68000000    51.22000000    18.54000000
   O     75.00000000    51.24000000    17.35000000
   C     76.89000000    51.80000000    19.79000000
   C     77.78000000    52.37000000    18.68000000
   C     79.26000000    52.08000000    18.91000000
   C     80.23000000    52.83000000    18.00000000
   N     81.58000000    52.26000000    18.13000000
   H     75.21000000    51.86000000    21.79000000
   H     75.30000000    53.03000000    19.21000000
   H     77.22000000    50.77000000    19.91000000
   H     77.25000000    52.22000000    20.73000000
   H     77.55000000    53.42000000    18.50000000
   H     77.52000000    51.84000000    17.76000000
   H     79.37000000    51.01000000    18.74000000
   H     79.52000000    52.30000000    19.95000000
   H     80.32000000    53.89000000    18.22000000
   H     79.91000000    52.69000000    16.97000000
   H     82.24000000    53.03000000    18.15000000
   H     81.60000000    51.79000000    19.02000000
   H     81.71000000    51.57000000    17.40000000
   N     73.66000000    50.48000000    18.99000000
   C     72.76000000    49.75000000    18.12000000
   C     71.29000000    50.10000000    18.30000000
   O     70.36000000    49.52000000    17.75000000
   C     73.04000000    48.25000000    18.20000000
   C     72.83000000    47.67000000    19.59000000
   O     72.91000000    46.43000000    19.72000000
   O     72.54000000    48.40000000    20.56000000
   H     73.36000000    50.47000000    19.96000000
   H     72.97000000    49.89000000    17.06000000
   H     74.07000000    48.12000000    17.88000000
   H     72.43000000    47.75000000    17.45000000
   N     71.01000000    51.15000000    19.07000000
   C     69.65000000    51.61000000    19.29000000
   C     68.67000000    50.60000000    19.86000000
   O     67.49000000    50.70000000    19.53000000
   H     71.73000000    51.52000000    19.66000000
   H     69.25000000    51.99000000    18.36000000
   H     69.66000000    52.44000000    20.00000000
   N     69.18000000    49.68000000    20.68000000
   C     68.36000000    48.65000000    21.28000000
   C     67.79000000    49.04000000    22.64000000
   O     67.04000000    48.27000000    23.23000000
   C     69.12000000    47.34000000    21.50000000
   C     70.19000000    47.26000000    22.58000000
   N     70.71000000    46.06000000    22.85000000
   O     70.73000000    48.28000000    23.00000000
   H     70.17000000    49.65000000    20.88000000
   H     67.53000000    48.41000000    20.62000000
   H     69.51000000    47.12000000    20.50000000
   H     68.49000000    46.46000000    21.67000000
   H     70.21000000    45.24000000    22.56000000
   H     71.18000000    45.87000000    23.72000000
   N     68.03000000    50.25000000    23.15000000
   C     67.61000000    50.75000000    24.44000000
   C     68.48000000    50.68000000    25.69000000
   O     67.98000000    50.84000000    26.80000000
   H     68.66000000    50.85000000    22.64000000
   H     66.72000000    50.18000000    24.68000000
   H     67.32000000    51.78000000    24.24000000
   N     69.70000000    50.22000000    25.42000000
   C     70.71000000    49.94000000    26.42000000
   C     72.09000000    50.44000000    26.00000000
   O     72.49000000    50.49000000    24.84000000
   C     70.78000000    48.43000000    26.63000000
   C     69.45000000    47.83000000    27.04000000
   C     68.87000000    48.03000000    28.30000000
   C     68.73000000    47.07000000    26.11000000
   C     67.55000000    47.66000000    28.60000000
   C     67.42000000    46.66000000    26.38000000
   C     66.82000000    46.96000000    27.62000000
   O     65.65000000    46.38000000    28.01000000
   H     69.81000000    50.20000000    24.41000000
   H     70.47000000    50.41000000    27.37000000
   H     71.53000000    48.23000000    27.40000000
   H     71.09000000    48.01000000    25.67000000
   H     69.40000000    48.61000000    29.04000000
   H     69.21000000    46.89000000    25.17000000
   H     67.18000000    47.73000000    29.61000000
   H     66.89000000    46.08000000    25.64000000
   H     65.24000000    45.88000000    27.29000000
   N     72.82000000    50.86000000    27.04000000
   C     74.21000000    51.25000000    27.05000000
   C     75.00000000    50.33000000    27.99000000
   O     74.74000000    50.11000000    29.17000000
   C     74.30000000    52.73000000    27.38000000
   C     73.58000000    53.80000000    26.57000000
   C     75.75000000    53.20000000    27.41000000
   C     73.29000000    55.06000000    27.38000000
   H     72.40000000    50.98000000    27.95000000
   H     74.64000000    51.18000000    26.05000000
   H     73.93000000    52.83000000    28.41000000
   H     72.59000000    53.48000000    26.24000000
   H     74.15000000    54.06000000    25.68000000
   H     75.87000000    54.28000000    27.47000000
   H     76.21000000    52.80000000    28.31000000
   H     76.37000000    52.83000000    26.59000000
   H     74.22000000    55.43000000    27.82000000
   H     72.82000000    55.74000000    26.67000000
   H     72.62000000    54.86000000    28.22000000
   N     76.14000000    49.90000000    27.44000000
   C     77.23000000    49.28000000    28.15000000
   C     78.53000000    50.04000000    27.96000000
   O     78.69000000    50.86000000    27.06000000
   C     77.39000000    47.80000000    27.79000000
   O     77.96000000    47.67000000    26.50000000
   H     76.30000000    50.08000000    26.46000000
   H     76.98000000    49.34000000    29.21000000
   H     76.42000000    47.32000000    27.74000000
   H     77.99000000    47.31000000    28.56000000
   H     77.41000000    48.16000000    25.89000000
   N     79.52000000    49.72000000    28.81000000
   C     80.72000000    50.50000000    29.05000000
   C     81.36000000    51.01000000    27.77000000
   O     81.35000000    52.22000000    27.55000000
   C     81.68000000    49.61000000    29.82000000
   H     79.32000000    49.01000000    29.50000000
   H     80.38000000    51.36000000    29.62000000
   H     81.85000000    48.73000000    29.20000000
   H     82.66000000    50.06000000    30.01000000
   H     81.21000000    49.34000000    30.77000000
   N     81.62000000    50.11000000    26.82000000
   C     82.21000000    50.52000000    25.56000000
   C     81.43000000    51.50000000    24.71000000
   O     82.01000000    52.28000000    23.96000000
   C     82.48000000    49.33000000    24.65000000
   H     81.60000000    49.11000000    27.01000000
   H     83.16000000    51.00000000    25.80000000
   H     82.92000000    49.53000000    23.67000000
   H     83.18000000    48.67000000    25.18000000
   H     81.54000000    48.84000000    24.41000000
   N     80.09000000    51.46000000    24.69000000
   C     79.27000000    52.35000000    23.89000000
   C     79.29000000    53.75000000    24.48000000
   O     79.59000000    54.67000000    23.72000000
   C     77.83000000    51.84000000    23.82000000
   C     77.69000000    50.40000000    23.34000000
   C     76.37000000    49.85000000    23.85000000
   O     76.33000000    48.86000000    24.61000000
   O     75.32000000    50.48000000    23.61000000
   H     79.66000000    50.93000000    25.43000000
   H     79.68000000    52.35000000    22.88000000
   H     77.31000000    52.48000000    23.12000000
   H     77.42000000    51.90000000    24.83000000
   H     78.42000000    49.73000000    23.80000000
   H     77.71000000    50.41000000    22.25000000
   N     79.18000000    53.94000000    25.79000000
   C     79.37000000    55.20000000    26.48000000
   H     80.18800000    55.74900000    26.01400000
   H     78.45500000    55.79000000    26.41900000
   H     79.61100000    55.00900000    27.52600000
   H     79.07000000    53.12000000    26.37000000
  Ca     73.36000000    49.00000000    22.84000000
   O     73.78000000    46.38000000    22.80000000
   H     73.99000000    45.56000000    23.24000000
   H     73.31000000    46.12000000    22.01000000
   O     75.84000000    48.37000000    21.26000000
   H     76.67000000    48.02000000    21.59000000
   H     76.04000000    48.66000000    20.37000000
   O     73.89000000    47.93000000    25.29000000
   H     74.82000000    48.17000000    25.30000000
   H     73.74000000    47.50000000    26.13000000

Ca 1.70



