%chk=loop4.cluster11.chk
%nprocshared=48
%mem=10GB
%nosave
#b3lyp/svp scf=(tight,noincore) Test 
#IOP(5/87=12) Density=Current Pop=(MK,readradii) iop(6/33=2) iop(6/42=6)

loop4.cluster11 

   -3  1 
   C     44.81000000    45.92000000    61.78000000
   C     45.52000000    45.72000000    63.12000000
   O     46.65000000    45.25000000    63.14000000
   H     43.91300000    46.52100000    61.93100000
   H     45.47800000    46.43200000    61.08700000
   H     44.53200000    44.95000000    61.36700000
   N     44.89000000    46.14000000    64.22000000
   C     45.27000000    46.27000000    65.61000000
   C     46.72000000    46.70000000    65.78000000
   O     47.67000000    46.00000000    66.14000000
   C     44.89000000    45.04000000    66.43000000
   C     45.09000000    43.72000000    65.70000000
   O     44.09000000    43.00000000    65.51000000
   O     46.25000000    43.33000000    65.48000000
   H     44.06000000    46.63000000    63.92000000
   H     44.64000000    47.09000000    65.95000000
   H     43.86000000    45.17000000    66.77000000
   H     45.44000000    45.13000000    67.37000000
   N     47.02000000    47.95000000    65.42000000
   C     48.26000000    48.67000000    65.54000000
   C     48.83000000    48.62000000    66.95000000
   O     49.70000000    47.85000000    67.35000000
   C     49.31000000    48.29000000    64.50000000
   C     50.54000000    49.20000000    64.42000000
   C     48.68000000    48.23000000    63.11000000
   C     51.73000000    48.59000000    63.68000000
   H     46.25000000    48.51000000    65.07000000
   H     48.09000000    49.74000000    65.38000000
   H     49.71000000    47.31000000    64.76000000
   H     50.84000000    49.42000000    65.44000000
   H     50.21000000    50.16000000    64.02000000
   H     49.46000000    47.94000000    62.41000000
   H     47.88000000    47.49000000    63.05000000
   H     48.35000000    49.25000000    62.89000000
   H     51.49000000    48.33000000    62.65000000
   H     52.50000000    49.36000000    63.59000000
   H     52.16000000    47.80000000    64.30000000
   N     48.14000000    49.29000000    67.88000000
   C     48.79000000    49.73000000    69.09000000
   C     47.87000000    49.77000000    70.30000000
   O     46.69000000    50.11000000    70.22000000
   C     49.47000000    51.09000000    68.93000000
   C     48.48000000    52.23000000    68.71000000
   O     48.44000000    53.10000000    69.61000000
   O     47.62000000    52.22000000    67.81000000
   H     47.37000000    49.86000000    67.55000000
   H     49.65000000    49.07000000    69.25000000
   H     50.08000000    51.09000000    68.03000000
   H     50.13000000    51.17000000    69.79000000
   N     48.30000000    49.43000000    71.52000000
   C     49.53000000    48.83000000    71.99000000
   C     49.70000000    47.32000000    71.97000000
   O     48.83000000    46.56000000    72.42000000
   H     47.70000000    49.72000000    72.28000000
   H     49.68000000    49.09000000    73.04000000
   H     50.27000000    49.37000000    71.39000000
   N     50.78000000    46.76000000    71.43000000
   C     52.03000000    47.43000000    71.13000000
   C     52.71000000    46.61000000    70.05000000
   O     52.77000000    45.39000000    70.20000000
   C     52.83000000    47.46000000    72.43000000
   C     54.13000000    48.26000000    72.36000000
   O     55.24000000    47.69000000    72.22000000
   O     53.95000000    49.50000000    72.35000000
   H     50.75000000    45.76000000    71.59000000
   H     51.88000000    48.43000000    70.72000000
   H     53.09000000    46.44000000    72.68000000
   H     52.18000000    47.87000000    73.20000000
   N     53.27000000    47.13000000    68.95000000
   C     53.60000000    48.51000000    68.68000000
   C     55.07000000    48.70000000    68.32000000
   O     55.37000000    49.69000000    67.65000000
   H     53.64000000    46.44000000    68.31000000
   H     53.36000000    49.13000000    69.55000000
   H     53.01000000    48.84000000    67.83000000
   N     55.96000000    47.76000000    68.61000000
   C     57.38000000    47.85000000    68.30000000
   C     57.80000000    47.62000000    66.86000000
   O     58.93000000    47.88000000    66.44000000
   C     58.16000000    46.97000000    69.27000000
   C     57.91000000    45.46000000    69.20000000
   C     58.54000000    44.77000000    70.40000000
   N     58.87000000    43.48000000    70.38000000
   O     58.62000000    45.33000000    71.49000000
   H     55.55000000    46.93000000    69.01000000
   H     57.67000000    48.84000000    68.65000000
   H     57.82000000    47.30000000    70.25000000
   H     59.22000000    47.21000000    69.30000000
   H     58.33000000    45.03000000    68.29000000
   H     56.85000000    45.20000000    69.20000000
   H     58.56000000    42.91000000    69.60000000
   H     59.17000000    43.07000000    71.25000000
   N     56.86000000    47.27000000    65.98000000
   C     57.10000000    46.89000000    64.60000000
   C     57.47000000    45.42000000    64.49000000
   O     56.57000000    44.61000000    64.67000000
   C     55.85000000    47.17000000    63.76000000
   C     56.02000000    46.88000000    62.28000000
   C     55.47000000    48.63000000    64.02000000
   H     55.93000000    47.10000000    66.31000000
   H     57.91000000    47.42000000    64.09000000
   H     55.07000000    46.51000000    64.12000000
   H     56.33000000    45.84000000    62.15000000
   H     55.06000000    47.03000000    61.79000000
   H     56.74000000    47.53000000    61.77000000
   H     56.32000000    49.28000000    63.83000000
   H     54.65000000    48.84000000    63.33000000
   H     55.06000000    48.91000000    64.99000000
   N     58.71000000    45.08000000    64.13000000
   C     59.09000000    43.78000000    63.61000000
   C     58.21000000    43.31000000    62.46000000
   O     58.04000000    44.02000000    61.47000000
   C     59.39000000    42.71000000    64.66000000
   C     60.39000000    43.23000000    65.68000000
   N     59.95000000    43.37000000    66.93000000
   O     61.50000000    43.69000000    65.41000000
   H     59.44000000    45.75000000    64.31000000
   H     60.09000000    43.93000000    63.21000000
   H     59.82000000    41.86000000    64.13000000
   H     58.50000000    42.40000000    65.22000000
   H     59.10000000    42.92000000    67.24000000
   H     60.63000000    43.66000000    67.62000000
   N     57.59000000    42.13000000    62.52000000
   C     56.89000000    41.43000000    61.45000000
   C     55.38000000    41.62000000    61.46000000
   O     54.78000000    42.19000000    62.37000000
   C     57.25000000    39.95000000    61.52000000
   C     58.71000000    39.58000000    61.61000000
   C     59.05000000    38.41000000    62.31000000
   C     59.66000000    40.27000000    60.85000000
   C     60.36000000    37.91000000    62.37000000
   C     60.99000000    39.91000000    61.09000000
   C     61.34000000    38.78000000    61.85000000
   O     62.62000000    38.30000000    61.94000000
   H     57.76000000    41.58000000    63.35000000
   H     57.28000000    41.79000000    60.50000000
   H     56.78000000    39.48000000    60.66000000
   H     56.70000000    39.64000000    62.41000000
   H     58.29000000    37.75000000    62.69000000
   H     59.45000000    41.13000000    60.23000000
   H     60.60000000    36.97000000    62.83000000
   H     61.80000000    40.51000000    60.69000000
   H     63.16000000    38.80000000    61.32000000
   N     54.76000000    41.16000000    60.38000000
   C     53.35000000    40.95000000    60.10000000
   C     52.41000000    42.13000000    59.93000000
   O     51.33000000    41.96000000    59.35000000
   C     52.83000000    39.85000000    61.02000000
   C     53.54000000    38.52000000    60.77000000
   C     53.34000000    37.53000000    61.90000000
   O     54.27000000    37.27000000    62.69000000
   O     52.26000000    36.89000000    61.93000000
   H     55.37000000    40.69000000    59.72000000
   H     53.45000000    40.56000000    59.08000000
   H     51.79000000    39.77000000    60.72000000
   H     52.94000000    40.11000000    62.08000000
   H     54.61000000    38.63000000    60.63000000
   H     53.28000000    38.16000000    59.77000000
   N     52.81000000    43.35000000    60.28000000
   C     52.15000000    44.63000000    60.12000000
   C     52.35000000    45.17000000    58.71000000
   O     51.45000000    45.62000000    57.99000000
   C     52.51000000    45.64000000    61.21000000
   C     52.38000000    45.17000000    62.65000000
   C     50.94000000    45.11000000    63.14000000
   O     50.74000000    45.19000000    64.37000000
   O     49.94000000    44.91000000    62.42000000
   H     53.73000000    43.35000000    60.70000000
   H     51.08000000    44.42000000    60.14000000
   H     51.80000000    46.46000000    61.08000000
   H     53.44000000    46.16000000    60.99000000
   H     52.97000000    45.89000000    63.22000000
   H     52.79000000    44.17000000    62.83000000
   N     53.60000000    45.29000000    58.27000000
   C     54.20000000    45.66000000    57.00000000
   H     55.21400000    45.26400000    56.94900000
   H     53.60800000    45.24700000    56.18400000
   H     54.23000000    46.74600000    56.91400000
   H     54.21000000    44.85000000    58.94000000
  Ca     48.53000000    44.05000000    64.58000000
   O     50.19000000    41.93000000    64.67000000
   H     51.10000000    41.63000000    64.66000000
   H     49.67000000    41.15000000    64.84000000
   O     47.69000000    42.32000000    62.77000000
   H     48.23000000    41.99000000    62.06000000
   H     46.81000000    42.38000000    62.39000000
   O     48.87000000    43.73000000    67.19000000
   H     49.44000000    44.14000000    67.85000000
   H     48.25000000    43.21000000    67.70000000

Ca 1.70



