%chk=loop2.cluster161.chk
%nprocshared=48
%mem=10GB
%nosave
#b3lyp/svp scf=(tight,noincore) Test 
#IOP(5/87=12) Density=Current Pop=(MK,readradii) iop(6/33=2) iop(6/42=6)

loop2.cluster161 

   -2  1 
   C     90.92000000   102.38000000    35.54000000
   C     90.81000000   103.54000000    36.51000000
   O     90.02000000   104.45000000    36.28000000
   H     91.96400000   102.08100000    35.44900000
   H     90.33200000   101.54000000    35.91000000
   H     90.54400000   102.68500000    34.56300000
   N     91.71000000   103.65000000    37.49000000
   C     91.85000000   104.79000000    38.38000000
   C     90.97000000   104.55000000    39.60000000
   O     90.76000000   105.42000000    40.44000000
   C     93.31000000   105.12000000    38.67000000
   C     93.70000000   106.59000000    38.73000000
   O     94.91000000   106.89000000    38.82000000
   O     92.92000000   107.51000000    38.41000000
   H     92.42000000   102.94000000    37.61000000
   H     91.51000000   105.73000000    37.96000000
   H     94.08000000   104.75000000    37.98000000
   H     93.56000000   104.77000000    39.67000000
   N     90.43000000   103.33000000    39.74000000
   C     89.61000000   102.95000000    40.87000000
   C     89.79000000   101.52000000    41.36000000
   O     89.84000000   100.62000000    40.53000000
   C     88.14000000   103.25000000    40.58000000
   H     90.61000000   102.59000000    39.07000000
   H     89.73000000   103.59000000    41.75000000
   H     87.96000000   102.94000000    39.56000000
   H     87.48000000   102.57000000    41.11000000
   H     87.93000000   104.32000000    40.66000000
   N     90.01000000   101.13000000    42.62000000
   C     89.97000000   101.93000000    43.82000000
   C     90.93000000   101.35000000    44.86000000
   O     91.21000000   100.16000000    44.90000000
   C     88.54000000   101.94000000    44.33000000
   C     88.18000000   102.98000000    45.38000000
   O     89.01000000   103.84000000    45.74000000
   O     86.99000000   103.00000000    45.75000000
   H     90.16000000   100.13000000    42.68000000
   H     90.30000000   102.91000000    43.48000000
   H     88.30000000   100.99000000    44.81000000
   H     87.88000000   102.13000000    43.48000000
   N     91.57000000   102.28000000    45.58000000
   C     92.47000000   101.98000000    46.68000000
   C     93.91000000   101.90000000    46.19000000
   O     94.30000000   102.61000000    45.26000000
   H     91.27000000   103.24000000    45.51000000
   H     92.12000000   101.09000000    47.20000000
   H     92.47000000   102.81000000    47.39000000
   N     94.68000000   100.99000000    46.78000000
   C     94.45000000   100.13000000    47.92000000
   C     93.93000000    98.78000000    47.44000000
   O     94.10000000    97.75000000    48.08000000
   C     95.73000000   100.01000000    48.74000000
   C     95.50000000    99.33000000    50.08000000
   N     96.44000000    98.45000000    50.43000000
   O     94.50000000    99.53000000    50.78000000
   H     95.62000000   100.96000000    46.43000000
   H     93.65000000   100.54000000    48.54000000
   H     96.24000000   100.96000000    48.93000000
   H     96.40000000    99.32000000    48.23000000
   H     97.33000000    98.31000000    49.97000000
   H     96.19000000    97.68000000    51.03000000
   N     93.39000000    98.65000000    46.22000000
   C     92.43000000    97.61000000    45.95000000
   C     91.19000000    97.57000000    46.83000000
   O     90.88000000    96.46000000    47.25000000
   H     93.33000000    99.47000000    45.63000000
   H     92.99000000    96.69000000    46.10000000
   H     92.08000000    97.75000000    44.92000000
   N     90.64000000    98.73000000    47.21000000
   C     89.55000000    98.92000000    48.15000000
   C     88.30000000    98.96000000    47.30000000
   O     87.68000000    99.98000000    47.00000000
   C     89.68000000   100.13000000    49.08000000
   C     89.08000000   100.06000000    50.48000000
   O     91.04000000   100.40000000    49.35000000
   H     90.90000000    99.45000000    46.56000000
   H     89.57000000    98.02000000    48.77000000
   H     89.36000000   101.05000000    48.60000000
   H     91.15000000   100.62000000    50.27000000
   H     88.95000000   101.07000000    50.85000000
   H     88.13000000    99.53000000    50.56000000
   H     89.75000000    99.60000000    51.20000000
   N     87.85000000    97.81000000    46.79000000
   C     86.78000000    97.55000000    45.85000000
   C     85.51000000    96.88000000    46.36000000
   O     85.66000000    96.01000000    47.21000000
   C     87.32000000    96.75000000    44.68000000
   C     88.30000000    97.64000000    43.91000000
   C     87.78000000    95.32000000    44.97000000
   C     88.50000000    97.24000000    42.45000000
   H     88.42000000    97.02000000    47.07000000
   H     86.44000000    98.53000000    45.52000000
   H     86.54000000    96.62000000    43.94000000
   H     89.30000000    97.58000000    44.34000000
   H     87.89000000    98.65000000    43.92000000
   H     88.70000000    95.30000000    45.55000000
   H     86.99000000    94.80000000    45.51000000
   H     87.88000000    94.79000000    44.02000000
   H     87.63000000    97.51000000    41.84000000
   H     89.35000000    97.84000000    42.13000000
   H     88.71000000    96.17000000    42.42000000
   N     84.34000000    97.32000000    45.89000000
   C     83.09000000    96.93000000    46.52000000
   C     82.14000000    96.31000000    45.51000000
   O     81.76000000    96.93000000    44.51000000
   C     82.50000000    98.09000000    47.32000000
   C     83.46000000    98.61000000    48.38000000
   O     83.29000000    98.22000000    49.55000000
   O     84.45000000    99.26000000    47.97000000
   H     84.44000000    98.08000000    45.23000000
   H     83.29000000    96.17000000    47.27000000
   H     81.55000000    97.75000000    47.74000000
   H     82.33000000    99.02000000    46.78000000
   N     81.77000000    95.05000000    45.75000000
   C     80.83000000    94.29000000    44.96000000
   C     80.97000000    94.38000000    43.45000000
   O     82.04000000    94.02000000    42.97000000
   C     80.58000000    92.92000000    45.58000000
   C     79.85000000    91.98000000    44.65000000
   C     80.53000000    90.97000000    43.96000000
   C     78.50000000    92.31000000    44.49000000
   C     79.72000000    90.22000000    43.10000000
   C     77.72000000    91.52000000    43.63000000
   C     78.38000000    90.54000000    42.88000000
   H     82.16000000    94.57000000    46.55000000
   H     79.89000000    94.81000000    45.11000000
   H     80.02000000    92.97000000    46.52000000
   H     81.49000000    92.48000000    46.00000000
   H     81.60000000    90.91000000    44.12000000
   H     78.15000000    93.22000000    44.97000000
   H     80.14000000    89.33000000    42.65000000
   H     76.69000000    91.77000000    43.46000000
   H     77.79000000    89.94000000    42.20000000
   N     80.03000000    94.99000000    42.73000000
   C     80.18000000    95.03000000    41.29000000
   C     81.27000000    95.98000000    40.81000000
   O     81.59000000    95.80000000    39.64000000
   C     78.80000000    95.43000000    40.75000000
   C     78.08000000    96.13000000    41.90000000
   C     78.79000000    95.62000000    43.15000000
   H     80.42000000    94.02000000    40.96000000
   H     78.84000000    96.03000000    39.85000000
   H     78.11000000    94.61000000    40.55000000
   H     78.26000000    97.21000000    41.83000000
   H     76.99000000    96.08000000    41.90000000
   H     78.95000000    96.43000000    43.86000000
   H     78.14000000    94.87000000    43.58000000
   N     81.84000000    96.89000000    41.60000000
   C     83.08000000    97.56000000    41.26000000
   C     84.23000000    96.62000000    40.90000000
   O     84.93000000    97.01000000    39.97000000
   C     83.46000000    98.46000000    42.42000000
   C     84.69000000    99.35000000    42.24000000
   C     84.63000000   100.29000000    43.44000000
   O     84.95000000   100.02000000    44.62000000
   O     84.27000000   101.42000000    43.04000000
   H     81.47000000    97.06000000    42.53000000
   H     82.77000000    98.10000000    40.36000000
   H     83.73000000    97.84000000    43.28000000
   H     82.67000000    99.17000000    42.62000000
   H     84.45000000    99.93000000    41.35000000
   H     85.52000000    98.67000000    42.07000000
   N     84.41000000    95.46000000    41.53000000
   C     85.27000000    94.37000000    41.13000000
   H     86.21500000    94.43700000    41.66900000
   H     84.78700000    93.42100000    41.36200000
   H     85.45900000    94.43000000    40.05800000
   H     83.67000000    95.24000000    42.17000000
  Ca     85.48000000   101.26400000    46.82000000
   O     83.81000000   102.79400000    45.26000000
   H     83.11000000   103.45400000    45.25000000
   H     83.88000000   102.50400000    44.35000000
   O     86.17000000   102.22400000    49.20000000
   H     86.62000000   102.98400000    49.56000000
   H     85.83000000   101.76400000    49.97000000

Ca 1.70



