%chk=loop3.cluster21.chk
%nprocshared=48
%mem=10GB
%nosave
#b3lyp/svp scf=(tight,noincore) Test 
#IOP(5/87=12) Density=Current Pop=(MK,readradii) iop(6/33=2) iop(6/42=6)

loop3.cluster21 

   0  1 
   C     26.57000000    45.77000000    32.50000000
   C     28.03000000    46.07000000    32.83000000
   O     28.80000000    45.12000000    32.77000000
   H     25.98200000    46.68400000    32.59100000
   H     26.49800000    45.39200000    31.48000000
   H     26.18700000    45.02100000    33.19300000
   N     28.45000000    47.25000000    33.28000000
   C     29.67000000    47.51000000    34.02000000
   C     29.53000000    46.85000000    35.39000000
   O     28.48000000    46.86000000    36.02000000
   C     29.96000000    49.01000000    34.12000000
   C     31.30000000    49.33000000    34.76000000
   O     31.74000000    48.69000000    35.74000000
   O     32.05000000    50.16000000    34.20000000
   H     27.74000000    47.97000000    33.36000000
   H     30.55000000    47.12000000    33.52000000
   H     29.16000000    49.45000000    34.72000000
   H     29.88000000    49.46000000    33.14000000
   N     30.60000000    46.20000000    35.85000000
   C     30.67000000    45.43000000    37.08000000
   C     30.73000000    46.33000000    38.30000000
   O     30.18000000    45.96000000    39.34000000
   C     31.78000000    44.40000000    37.11000000
   C     31.50000000    43.33000000    38.17000000
   C     32.37000000    42.09000000    37.99000000
   C     31.81000000    40.92000000    38.80000000
   N     32.15000000    40.96000000    40.23000000
   H     31.46000000    46.27000000    35.33000000
   H     29.73000000    44.90000000    37.23000000
   H     32.75000000    44.87000000    37.26000000
   H     31.77000000    43.94000000    36.12000000
   H     30.44000000    43.08000000    38.12000000
   H     31.70000000    43.66000000    39.19000000
   H     33.42000000    42.25000000    38.22000000
   H     32.43000000    41.77000000    36.95000000
   H     32.17000000    40.00000000    38.33000000
   H     30.74000000    40.99000000    38.64000000
   H     32.26000000    40.03000000    40.62000000
   H     33.06000000    41.39000000    40.34000000
   H     31.46000000    41.49000000    40.73000000
   N     31.28000000    47.54000000    38.17000000
   C     31.57000000    48.40000000    39.30000000
   C     31.08000000    49.82000000    39.08000000
   O     31.20000000    50.64000000    39.99000000
   C     33.09000000    48.37000000    39.49000000
   C     33.85000000    48.59000000    38.19000000
   O     34.43000000    47.64000000    37.61000000
   O     33.76000000    49.72000000    37.67000000
   H     31.69000000    47.80000000    37.29000000
   H     31.10000000    48.11000000    40.25000000
   H     33.39000000    47.37000000    39.77000000
   H     33.50000000    49.01000000    40.27000000
   N     30.56000000    50.14000000    37.89000000
   C     30.08000000    51.45000000    37.49000000
   C     31.01000000    52.50000000    36.89000000
   O     30.63000000    53.63000000    36.59000000
   H     30.46000000    49.33000000    37.29000000
   H     29.84000000    51.84000000    38.48000000
   H     29.23000000    51.48000000    36.81000000
   N     32.32000000    52.24000000    36.86000000
   C     33.30000000    53.27000000    36.57000000
   C     33.35000000    53.74000000    35.12000000
   O     33.83000000    54.82000000    34.80000000
   C     34.68000000    52.82000000    37.03000000
   C     35.54000000    52.07000000    36.02000000
   N     36.85000000    52.33000000    36.02000000
   O     35.09000000    51.25000000    35.22000000
   H     32.60000000    51.37000000    37.28000000
   H     33.01000000    54.04000000    37.28000000
   H     34.68000000    52.30000000    37.99000000
   H     35.23000000    53.70000000    37.35000000
   H     37.28000000    52.97000000    36.67000000
   H     37.46000000    51.78000000    35.43000000
   N     32.82000000    52.91000000    34.22000000
   C     32.52000000    53.40000000    32.89000000
   C     33.19000000    52.70000000    31.72000000
   O     33.32000000    53.28000000    30.64000000
   H     32.44000000    51.99000000    34.37000000
   H     32.83000000    54.43000000    32.74000000
   H     31.43000000    53.37000000    32.78000000
   N     33.66000000    51.49000000    32.04000000
   C     34.40000000    50.63000000    31.14000000
   C     34.02000000    49.21000000    31.53000000
   O     33.93000000    48.85000000    32.70000000
   C     35.91000000    50.81000000    31.26000000
   C     36.43000000    52.20000000    30.99000000
   C     37.19000000    52.41000000    29.83000000
   C     36.33000000    53.22000000    31.93000000
   C     37.68000000    53.69000000    29.52000000
   C     36.82000000    54.51000000    31.66000000
   C     37.51000000    54.73000000    30.45000000
   O     37.96000000    55.98000000    30.14000000
   H     33.48000000    51.12000000    32.96000000
   H     34.07000000    50.91000000    30.14000000
   H     36.39000000    50.05000000    30.64000000
   H     36.16000000    50.55000000    32.29000000
   H     37.32000000    51.63000000    29.10000000
   H     35.88000000    52.97000000    32.88000000
   H     38.23000000    53.84000000    28.60000000
   H     36.61000000    55.38000000    32.26000000
   H     38.39000000    56.06000000    29.29000000
   N     34.00000000    48.40000000    30.46000000
   C     33.82000000    46.97000000    30.51000000
   C     35.11000000    46.23000000    30.22000000
   O     35.69000000    46.52000000    29.17000000
   C     32.71000000    46.49000000    29.58000000
   C     31.39000000    47.25000000    29.72000000
   C     32.45000000    45.00000000    29.77000000
   C     30.61000000    47.31000000    28.40000000
   H     34.02000000    48.80000000    29.53000000
   H     33.49000000    46.72000000    31.52000000
   H     33.13000000    46.65000000    28.58000000
   H     31.52000000    48.32000000    29.90000000
   H     30.78000000    46.75000000    30.47000000
   H     31.62000000    44.74000000    29.11000000
   H     33.25000000    44.37000000    29.38000000
   H     32.10000000    44.68000000    30.75000000
   H     30.30000000    46.28000000    28.24000000
   H     29.72000000    47.88000000    28.65000000
   H     31.17000000    47.92000000    27.69000000
   N     35.52000000    45.33000000    31.11000000
   C     36.58000000    44.38000000    30.83000000
   C     35.93000000    43.01000000    30.79000000
   O     34.78000000    42.69000000    31.06000000
   C     37.69000000    44.54000000    31.87000000
   O     38.75000000    43.70000000    31.48000000
   H     35.02000000    45.16000000    31.98000000
   H     37.05000000    44.63000000    29.88000000
   H     37.23000000    44.46000000    32.85000000
   H     38.07000000    45.57000000    31.86000000
   H     39.38000000    43.76000000    32.21000000
   N     36.75000000    42.03000000    30.37000000
   C     36.41000000    40.67000000    30.00000000
   C     35.69000000    39.92000000    31.11000000
   O     34.76000000    39.17000000    30.81000000
   C     37.73000000    39.97000000    29.71000000
   H     37.68000000    42.31000000    30.11000000
   H     35.87000000    40.66000000    29.06000000
   H     38.07000000    40.44000000    28.79000000
   H     38.51000000    40.06000000    30.47000000
   H     37.58000000    38.92000000    29.49000000
   N     36.06000000    40.06000000    32.39000000
   C     35.36000000    39.50000000    33.53000000
   C     34.12000000    40.19000000    34.07000000
   O     33.24000000    39.49000000    34.56000000
   C     36.23000000    39.12000000    34.72000000
   H     36.76000000    40.77000000    32.57000000
   H     34.93000000    38.57000000    33.17000000
   H     36.67000000    40.04000000    35.11000000
   H     35.61000000    38.70000000    35.52000000
   H     36.92000000    38.32000000    34.46000000
   N     33.98000000    41.47000000    33.73000000
   C     32.75000000    42.24000000    33.76000000
   C     31.73000000    41.74000000    32.75000000
   O     30.59000000    41.48000000    33.13000000
   C     32.95000000    43.73000000    33.50000000
   C     34.17000000    44.27000000    34.23000000
   C     34.19000000    45.77000000    34.49000000
   O     33.12000000    46.41000000    34.61000000
   O     35.24000000    46.44000000    34.42000000
   H     34.81000000    41.84000000    33.28000000
   H     32.28000000    42.16000000    34.74000000
   H     32.07000000    44.27000000    33.84000000
   H     33.03000000    43.85000000    32.42000000
   H     35.07000000    43.96000000    33.69000000
   H     34.22000000    43.78000000    35.21000000
   N     32.18000000    41.42000000    31.54000000
   C     31.30000000    40.98000000    30.47000000
   H     30.41300000    41.61300000    30.44700000
   H     31.82200000    41.05200000    29.51600000
   H     31.00300000    39.94600000    30.64500000
   H     33.11000000    41.70000000    31.27000000
  Ca     34.44000000    48.67000000    35.24000000
   O     36.39000000    48.58000000    33.50000000
   H     37.07000000    48.85000000    32.89000000
   H     36.37000000    47.62000000    33.43000000
   O     36.85000000    48.91000000    36.63000000
   H     37.57000000    49.36000000    36.19000000
   H     37.27000000    48.38000000    37.30000000

Ca 1.70



