%chk=loop2.cluster239.chk
%nprocshared=48
%mem=10GB
%nosave
#b3lyp/svp scf=(tight,noincore) Test 
#IOP(5/87=12) Density=Current Pop=(MK,readradii) iop(6/33=2) iop(6/42=6)

loop2.cluster239 

   -2  1 
   C    115.63000000     7.88000000    80.19000000
   C    116.08000000     8.53000000    81.49000000
   O    115.33000000     9.39000000    81.95000000
   H    114.75700000     8.40700000    79.80400000
   H    116.43700000     7.93200000    79.45900000
   H    115.37200000     6.83700000    80.37500000
   N    117.22000000     8.15000000    82.08000000
   C    117.97000000     8.82000000    83.12000000
   C    117.29000000     9.00000000    84.47000000
   O    117.76000000     9.69000000    85.37000000
   C    119.40000000     8.28000000    83.15000000
   C    120.35000000     9.00000000    84.10000000
   O    121.00000000     8.30000000    84.91000000
   O    120.70000000    10.18000000    83.90000000
   H    117.67000000     7.31000000    81.74000000
   H    118.09000000     9.86000000    82.81000000
   H    119.84000000     8.22000000    82.16000000
   H    119.36000000     7.25000000    83.50000000
   N    116.15000000     8.33000000    84.65000000
   C    115.21000000     8.44000000    85.75000000
   C    114.06000000     7.46000000    85.61000000
   O    113.80000000     6.97000000    84.51000000
   C    114.62000000     9.83000000    85.97000000
   H    115.76000000     7.94000000    83.81000000
   H    115.78000000     8.23000000    86.66000000
   H    113.80000000     9.59000000    86.64000000
   H    115.33000000    10.50000000    86.46000000
   H    114.21000000    10.13000000    85.01000000
   N    113.42000000     6.91000000    86.65000000
   C    113.73000000     7.20000000    88.03000000
   C    114.92000000     6.31000000    88.37000000
   O    115.57000000     6.57000000    89.38000000
   C    112.48000000     6.94000000    88.87000000
   C    112.62000000     7.24000000    90.36000000
   O    112.71000000     8.43000000    90.73000000
   O    112.64000000     6.28000000    91.17000000
   H    112.67000000     6.29000000    86.39000000
   H    114.04000000     8.23000000    88.25000000
   H    112.16000000     5.90000000    88.78000000
   H    111.76000000     7.59000000    88.39000000
   N    115.33000000     5.29000000    87.61000000
   C    116.45000000     4.45000000    87.99000000
   C    117.82000000     5.01000000    87.62000000
   O    117.90000000     5.84000000    86.72000000
   H    114.79000000     5.03000000    86.80000000
   H    116.29000000     3.40000000    87.75000000
   H    116.45000000     4.52000000    89.08000000
   N    118.86000000     4.55000000    88.31000000
   C    118.87000000     3.47000000    89.28000000
   C    118.73000000     2.14000000    88.56000000
   O    119.40000000     1.89000000    87.56000000
   C    120.18000000     3.74000000    90.02000000
   C    120.39000000     2.71000000    91.12000000
   N    119.40000000     2.67000000    92.01000000
   O    121.39000000     2.00000000    91.08000000
   H    119.73000000     5.03000000    88.13000000
   H    118.04000000     3.71000000    89.94000000
   H    120.25000000     4.78000000    90.36000000
   H    121.09000000     3.60000000    89.43000000
   H    118.63000000     3.32000000    91.92000000
   H    119.34000000     2.00000000    92.76000000
   N    117.81000000     1.34000000    89.12000000
   C    117.49000000     0.05000000    88.54000000
   C    116.16000000    -0.55000000    88.99000000
   O    115.84000000    -1.69000000    88.66000000
   H    117.36000000     1.60000000    89.98000000
   H    118.27000000    -0.67000000    88.79000000
   H    117.37000000     0.25000000    87.48000000
   N    115.38000000     0.16000000    89.81000000
   C    114.00000000    -0.14000000    90.14000000
   C    113.14000000     1.07000000    89.79000000
   O    113.40000000     2.17000000    90.26000000
   C    113.82000000    -0.32000000    91.65000000
   C    112.41000000    -0.69000000    92.10000000
   O    114.64000000    -1.39000000    92.08000000
   H    115.78000000     0.96000000    90.27000000
   H    113.66000000    -1.01000000    89.60000000
   H    114.19000000     0.58000000    92.14000000
   H    115.54000000    -1.15000000    91.84000000
   H    111.99000000    -1.66000000    91.85000000
   H    112.45000000    -0.68000000    93.19000000
   H    111.62000000    -0.01000000    91.79000000
   N    112.12000000     0.79000000    88.98000000
   C    111.11000000     1.80000000    88.73000000
   C    109.82000000     1.23000000    89.30000000
   O    109.75000000     0.09000000    89.76000000
   C    111.08000000     2.14000000    87.24000000
   C    112.33000000     2.91000000    86.84000000
   C    110.91000000     0.90000000    86.37000000
   C    112.22000000     3.58000000    85.47000000
   H    111.87000000    -0.17000000    88.81000000
   H    111.30000000     2.75000000    89.22000000
   H    110.17000000     2.72000000    87.08000000
   H    113.23000000     2.31000000    86.89000000
   H    112.50000000     3.78000000    87.47000000
   H    111.82000000     0.42000000    85.99000000
   H    110.28000000     0.21000000    86.93000000
   H    110.30000000     1.02000000    85.47000000
   H    111.39000000     4.27000000    85.31000000
   H    113.06000000     4.23000000    85.22000000
   H    112.17000000     2.79000000    84.72000000
   N    108.83000000     2.13000000    89.31000000
   C    107.52000000     1.78000000    89.83000000
   C    106.46000000     2.66000000    89.18000000
   O    106.74000000     3.78000000    88.77000000
   C    107.47000000     1.91000000    91.35000000
   C    108.31000000     2.99000000    92.02000000
   O    109.41000000     2.66000000    92.51000000
   O    107.90000000     4.17000000    92.09000000
   H    108.97000000     3.08000000    88.99000000
   H    107.23000000     0.76000000    89.59000000
   H    107.78000000     0.97000000    91.79000000
   H    106.49000000     2.15000000    91.76000000
   N    105.27000000     2.10000000    88.96000000
   C    104.15000000     2.93000000    88.58000000
   C    104.42000000     3.74000000    87.31000000
   O    104.77000000     3.20000000    86.27000000
   C    102.86000000     2.13000000    88.42000000
   C    101.70000000     2.90000000    87.84000000
   C    101.29000000     2.82000000    86.50000000
   C    100.98000000     3.80000000    88.63000000
   C    100.15000000     3.43000000    85.99000000
   C     99.99000000     4.61000000    88.07000000
   C     99.55000000     4.45000000    86.75000000
   H    104.98000000     1.17000000    89.24000000
   H    103.88000000     3.59000000    89.40000000
   H    102.42000000     1.81000000    89.37000000
   H    103.06000000     1.29000000    87.76000000
   H    101.82000000     2.06000000    85.95000000
   H    101.29000000     3.96000000    89.65000000
   H     99.77000000     3.19000000    85.01000000
   H     99.46000000     5.37000000    88.65000000
   H     98.76000000     5.02000000    86.30000000
   N    104.12000000     5.04000000    87.36000000
   C    104.31000000     5.80000000    86.14000000
   C    105.68000000     5.80000000    85.48000000
   O    105.86000000     6.23000000    84.34000000
   C    104.00000000     7.23000000    86.58000000
   C    103.05000000     7.07000000    87.76000000
   C    103.69000000     5.87000000    88.46000000
   H    103.48000000     5.59000000    85.47000000
   H    104.92000000     7.72000000    86.89000000
   H    103.56000000     7.80000000    85.76000000
   H    102.95000000     7.91000000    88.45000000
   H    102.01000000     6.84000000    87.50000000
   H    104.48000000     6.21000000    89.13000000
   H    102.93000000     5.32000000    89.02000000
   N    106.75000000     5.37000000    86.14000000
   C    108.14000000     5.37000000    85.71000000
   C    108.35000000     4.34000000    84.61000000
   O    109.04000000     4.62000000    83.63000000
   C    109.02000000     5.16000000    86.94000000
   C    108.66000000     6.09000000    88.10000000
   C    109.43000000     5.73000000    89.36000000
   O    109.40000000     6.53000000    90.32000000
   O    110.13000000     4.70000000    89.48000000
   H    106.62000000     5.04000000    87.09000000
   H    108.31000000     6.31000000    85.20000000
   H    110.06000000     5.39000000    86.71000000
   H    108.81000000     4.18000000    87.39000000
   H    107.60000000     6.08000000    88.32000000
   H    109.06000000     7.08000000    87.87000000
   N    107.64000000     3.21000000    84.68000000
   C    107.49000000     2.32000000    83.55000000
   H    106.79800000     2.76000000    82.83100000
   H    108.45900000     2.16900000    83.07500000
   H    107.09800000     1.36200000    83.89100000
   H    107.06000000     3.07000000    85.49000000
  Ca    110.58500000     5.05000000    92.10000000
   O    112.65500000     3.43000000    92.56000000
   H    112.99500000     3.24000000    91.69000000
   H    112.78500000     2.62000000    93.06000000

Ca 1.70



