%chk=loop1.cluster64.chk
%nprocshared=48
%mem=10GB
%nosave
#b3lyp/svp scf=(tight,noincore) Test 
#IOP(5/87=12) Density=Current Pop=(MK,readradii) iop(6/33=2) iop(6/42=6)

loop1.cluster64 

   0  1 
   C     65.49000000    44.06000000    29.99000000
   C     66.48000000    43.22000000    29.19000000
   O     66.25000000    42.01000000    29.07000000
   H     64.55000000    43.51700000    30.08900000
   H     65.90000000    44.26100000    30.98000000
   H     65.31100000    45.00200000    29.47300000
   N     67.57000000    43.79000000    28.69000000
   C     68.55000000    43.06000000    27.91000000
   C     69.47000000    42.23000000    28.79000000
   O     70.34000000    42.78000000    29.46000000
   C     69.25000000    44.07000000    27.01000000
   C     70.46000000    43.50000000    26.29000000
   O     71.45000000    44.24000000    26.10000000
   O     70.37000000    42.32000000    25.91000000
   H     67.71000000    44.79000000    28.82000000
   H     68.04000000    42.33000000    27.27000000
   H     69.50000000    45.04000000    27.45000000
   H     68.51000000    44.24000000    26.23000000
   N     69.36000000    40.90000000    28.75000000
   C     69.95000000    39.91000000    29.62000000
   C     71.17000000    39.28000000    28.96000000
   O     71.90000000    38.58000000    29.65000000
   C     68.93000000    38.85000000    30.03000000
   C     67.88000000    39.14000000    31.09000000
   C     67.02000000    37.93000000    31.45000000
   C     66.17000000    38.03000000    32.72000000
   N     65.01000000    38.92000000    32.56000000
   H     68.66000000    40.51000000    28.13000000
   H     70.30000000    40.49000000    30.47000000
   H     69.49000000    37.99000000    30.42000000
   H     68.39000000    38.56000000    29.13000000
   H     67.20000000    39.92000000    30.74000000
   H     68.35000000    39.40000000    32.03000000
   H     67.68000000    37.06000000    31.52000000
   H     66.38000000    37.70000000    30.61000000
   H     66.82000000    38.34000000    33.54000000
   H     65.73000000    37.07000000    32.98000000
   H     65.27000000    39.90000000    32.66000000
   H     64.63000000    38.86000000    31.63000000
   H     64.27000000    38.78000000    33.23000000
   N     71.42000000    39.52000000    27.67000000
   C     72.55000000    38.98000000    26.93000000
   C     73.48000000    39.96000000    26.24000000
   O     74.41000000    39.62000000    25.50000000
   C     71.90000000    37.96000000    26.00000000
   C     70.76000000    38.41000000    25.10000000
   O     69.88000000    37.58000000    24.82000000
   O     70.80000000    39.54000000    24.57000000
   H     70.90000000    40.24000000    27.20000000
   H     73.26000000    38.39000000    27.52000000
   H     71.54000000    37.15000000    26.63000000
   H     72.72000000    37.67000000    25.34000000
   N     73.40000000    41.26000000    26.52000000
   C     74.33000000    42.33000000    26.24000000
   C     74.50000000    42.79000000    24.80000000
   O     75.51000000    43.39000000    24.45000000
   H     72.50000000    41.58000000    26.85000000
   H     75.30000000    42.04000000    26.65000000
   H     74.03000000    43.16000000    26.88000000
   N     73.55000000    42.52000000    23.89000000
   C     73.62000000    42.91000000    22.50000000
   C     73.20000000    44.34000000    22.22000000
   O     73.67000000    44.88000000    21.22000000
   C     72.80000000    42.01000000    21.57000000
   C     71.34000000    41.93000000    21.97000000
   O     70.82000000    42.79000000    22.72000000
   O     70.70000000    40.91000000    21.64000000
   H     72.64000000    42.15000000    24.16000000
   H     74.67000000    42.89000000    22.23000000
   H     73.26000000    41.03000000    21.69000000
   H     72.88000000    42.38000000    20.55000000
   N     72.47000000    45.02000000    23.11000000
   C     72.04000000    46.39000000    22.93000000
   C     70.59000000    46.57000000    22.51000000
   O     70.25000000    47.66000000    22.05000000
   H     72.24000000    44.54000000    23.96000000
   H     72.50000000    46.81000000    22.03000000
   H     72.24000000    46.86000000    23.90000000
   N     69.75000000    45.53000000    22.54000000
   C     68.38000000    45.50000000    22.06000000
   C     67.50000000    44.56000000    22.87000000
   O     67.98000000    43.60000000    23.46000000
   C     68.39000000    45.04000000    20.61000000
   C     69.19000000    45.89000000    19.63000000
   O     68.78000000    43.70000000    20.40000000
   H     70.21000000    44.65000000    22.70000000
   H     68.07000000    46.54000000    21.93000000
   H     67.36000000    45.13000000    20.25000000
   H     68.87000000    43.62000000    19.44000000
   H     70.26000000    45.75000000    19.78000000
   H     68.87000000    45.60000000    18.63000000
   H     68.97000000    46.93000000    19.87000000
   N     66.17000000    44.71000000    22.82000000
   C     65.16000000    43.96000000    23.53000000
   C     64.17000000    43.24000000    22.64000000
   O     63.75000000    43.72000000    21.59000000
   C     64.39000000    44.81000000    24.53000000
   C     65.21000000    45.80000000    25.36000000
   C     63.63000000    44.07000000    25.63000000
   C     64.30000000    46.88000000    25.93000000
   H     65.91000000    45.54000000    22.31000000
   H     65.61000000    43.26000000    24.24000000
   H     63.64000000    45.36000000    23.96000000
   H     66.01000000    46.21000000    24.75000000
   H     65.72000000    45.25000000    26.16000000
   H     64.30000000    43.46000000    26.23000000
   H     62.93000000    44.61000000    26.26000000
   H     62.98000000    43.31000000    25.21000000
   H     64.09000000    47.58000000    25.12000000
   H     63.40000000    46.58000000    26.46000000
   H     64.82000000    47.45000000    26.70000000
   N     63.88000000    42.00000000    23.03000000
   C     63.02000000    41.14000000    22.26000000
   C     61.60000000    40.93000000    22.78000000
   O     61.28000000    41.03000000    23.96000000
   C     63.62000000    39.74000000    22.12000000
   C     64.54000000    39.51000000    20.92000000
   O     64.31000000    39.26000000    23.25000000
   H     64.24000000    41.69000000    23.93000000
   H     62.88000000    41.50000000    21.24000000
   H     62.77000000    39.08000000    21.97000000
   H     65.09000000    39.82000000    23.37000000
   H     65.53000000    39.81000000    21.24000000
   H     64.53000000    38.44000000    20.72000000
   H     64.16000000    40.02000000    20.03000000
   N     60.69000000    40.44000000    21.94000000
   C     59.50000000    39.68000000    22.28000000
   C     59.74000000    38.66000000    23.39000000
   O     58.97000000    38.61000000    24.35000000
   C     58.87000000    38.94000000    21.11000000
   C     58.28000000    39.83000000    20.01000000
   O     59.82000000    38.13000000    20.45000000
   H     60.97000000    40.35000000    20.98000000
   H     58.80000000    40.43000000    22.65000000
   H     58.10000000    38.27000000    21.48000000
   H     59.40000000    37.72000000    19.69000000
   H     57.74000000    40.67000000    20.44000000
   H     59.11000000    40.25000000    19.46000000
   H     57.54000000    39.25000000    19.45000000
   N     60.84000000    37.92000000    23.34000000
   C     61.34000000    36.99000000    24.35000000
   C     61.59000000    37.73000000    25.65000000
   O     60.94000000    37.46000000    26.66000000
   C     62.53000000    36.17000000    23.87000000
   C     62.92000000    35.11000000    24.90000000
   C     64.14000000    34.28000000    24.52000000
   C     64.90000000    33.70000000    25.71000000
   N     64.10000000    32.74000000    26.49000000
   H     61.32000000    37.91000000    22.45000000
   H     60.50000000    36.33000000    24.54000000
   H     63.41000000    36.76000000    23.63000000
   H     62.18000000    35.70000000    22.95000000
   H     62.08000000    34.47000000    25.19000000
   H     63.16000000    35.54000000    25.87000000
   H     64.83000000    34.94000000    23.98000000
   H     63.84000000    33.50000000    23.82000000
   H     65.21000000    34.51000000    26.37000000
   H     65.76000000    33.18000000    25.30000000
   H     63.65000000    32.02000000    25.93000000
   H     64.71000000    32.39000000    27.22000000
   H     63.45000000    33.15000000    27.14000000
   N     62.48000000    38.72000000    25.62000000
   C     62.88000000    39.45000000    26.81000000
   C     61.77000000    40.24000000    27.47000000
   O     61.85000000    40.51000000    28.67000000
   C     64.07000000    40.30000000    26.39000000
   C     65.42000000    39.59000000    26.28000000
   C     66.51000000    40.28000000    25.46000000
   O     66.24000000    40.76000000    24.34000000
   O     67.70000000    40.17000000    25.84000000
   H     62.98000000    38.99000000    24.78000000
   H     63.21000000    38.73000000    27.56000000
   H     64.21000000    41.15000000    27.06000000
   H     63.79000000    40.83000000    25.48000000
   H     65.34000000    38.63000000    25.77000000
   H     65.74000000    39.31000000    27.28000000
   N     60.80000000    40.71000000    26.68000000
   C     59.64000000    41.42000000    27.17000000
   H     58.79900000    40.73100000    27.24800000
   H     59.85800000    41.83900000    28.15200000
   H     59.38700000    42.22400000    26.47900000
   H     60.78000000    40.46000000    25.70000000
  Ca     69.00000000    41.32000000    23.97000000
   O     67.79000000    41.30000000    21.40000000
   H     68.36000000    41.99000000    21.07000000
   H     67.36000000    40.95000000    20.62000000

Ca 1.70



