%chk=loop1.cluster146.chk
%nprocshared=48
%mem=10GB
%nosave
#b3lyp/svp scf=(tight,noincore) Test 
#IOP(5/87=12) Density=Current Pop=(MK,readradii) iop(6/33=2) iop(6/42=6)

loop1.cluster146 

   0  1 
   C     28.82000000    18.95000000    23.98000000
   C     27.90000000    17.89000000    23.39000000
   O     28.28000000    17.25000000    22.41000000
   H     29.72600000    19.02000000    23.37800000
   H     28.31100000    19.91400000    23.98200000
   H     29.08400000    18.67500000    25.00100000
   N     26.72000000    17.59000000    23.95000000
   C     25.77000000    16.57000000    23.55000000
   C     24.77000000    16.96000000    22.48000000
   O     23.76000000    16.28000000    22.30000000
   C     25.14000000    15.91000000    24.78000000
   C     24.26000000    16.93000000    25.48000000
   O     23.03000000    17.07000000    25.32000000
   O     24.73000000    17.69000000    26.36000000
   H     26.49000000    18.22000000    24.70000000
   H     26.36000000    15.77000000    23.10000000
   H     25.89000000    15.52000000    25.47000000
   H     24.48000000    15.09000000    24.49000000
   N     24.93000000    18.04000000    21.72000000
   C     23.96000000    18.62000000    20.81000000
   C     24.54000000    19.08000000    19.48000000
   O     25.39000000    19.96000000    19.42000000
   C     23.41000000    19.83000000    21.57000000
   C     22.78000000    19.54000000    22.93000000
   C     22.26000000    20.79000000    23.64000000
   C     21.69000000    20.47000000    25.02000000
   N     22.64000000    19.82000000    25.93000000
   H     25.77000000    18.59000000    21.86000000
   H     23.12000000    17.96000000    20.59000000
   H     22.70000000    20.37000000    20.95000000
   H     24.20000000    20.56000000    21.77000000
   H     23.57000000    19.13000000    23.56000000
   H     21.97000000    18.85000000    22.73000000
   H     21.50000000    21.28000000    23.04000000
   H     23.18000000    21.37000000    23.75000000
   H     20.77000000    19.88000000    25.00000000
   H     21.47000000    21.43000000    25.48000000
   H     22.26000000    19.73000000    26.86000000
   H     22.77000000    18.84000000    25.73000000
   H     23.55000000    20.25000000    26.05000000
   N     24.18000000    18.51000000    18.33000000
   C     23.56000000    17.25000000    17.98000000
   C     22.06000000    17.15000000    18.20000000
   O     21.47000000    17.90000000    18.98000000
   C     24.38000000    16.07000000    18.51000000
   C     25.80000000    16.13000000    17.96000000
   O     26.17000000    16.71000000    16.92000000
   O     26.72000000    15.52000000    18.55000000
   H     24.74000000    18.92000000    17.59000000
   H     23.65000000    17.18000000    16.89000000
   H     23.93000000    15.16000000    18.10000000
   H     24.39000000    16.15000000    19.59000000
   N     21.38000000    16.26000000    17.47000000
   C     21.78000000    15.49000000    16.32000000
   C     21.09000000    14.13000000    16.31000000
   O     19.88000000    14.08000000    16.48000000
   H     20.42000000    16.16000000    17.78000000
   H     22.85000000    15.30000000    16.41000000
   H     21.66000000    16.03000000    15.38000000
   N     21.72000000    12.98000000    16.07000000
   C     23.12000000    12.81000000    15.74000000
   C     24.03000000    12.72000000    16.96000000
   O     25.19000000    13.09000000    16.84000000
   C     23.31000000    11.57000000    14.88000000
   C     22.67000000    10.28000000    15.38000000
   O     23.46000000     9.37000000    15.71000000
   O     21.42000000    10.23000000    15.37000000
   H     21.13000000    12.16000000    15.97000000
   H     23.40000000    13.72000000    15.20000000
   H     24.40000000    11.49000000    14.84000000
   H     22.85000000    11.82000000    13.93000000
   N     23.59000000    12.28000000    18.14000000
   C     24.24000000    12.41000000    19.43000000
   C     25.62000000    11.78000000    19.54000000
   O     25.68000000    10.59000000    19.81000000
   H     22.78000000    11.68000000    18.22000000
   H     23.60000000    11.97000000    20.19000000
   H     24.35000000    13.46000000    19.67000000
   N     26.69000000    12.55000000    19.32000000
   C     28.06000000    12.07000000    19.40000000
   C     29.24000000    13.03000000    19.52000000
   O     29.43000000    13.97000000    18.75000000
   C     28.32000000    11.09000000    18.26000000
   C     29.69000000    10.42000000    18.22000000
   O     28.24000000    11.81000000    17.05000000
   H     26.46000000    13.49000000    19.03000000
   H     28.17000000    11.50000000    20.33000000
   H     27.62000000    10.25000000    18.31000000
   H     27.32000000    11.91000000    16.81000000
   H     30.44000000    11.15000000    17.91000000
   H     30.06000000     9.95000000    19.13000000
   H     29.61000000     9.76000000    17.36000000
   N     30.06000000    12.79000000    20.54000000
   C     31.17000000    13.67000000    20.83000000
   C     32.34000000    12.86000000    21.38000000
   O     32.43000000    12.44000000    22.53000000
   C     30.73000000    14.74000000    21.83000000
   C     31.90000000    15.62000000    22.27000000
   C     30.08000000    14.19000000    23.09000000
   C     32.59000000    16.29000000    21.09000000
   H     29.95000000    11.98000000    21.15000000
   H     31.42000000    14.24000000    19.94000000
   H     29.95000000    15.37000000    21.41000000
   H     32.67000000    14.97000000    22.69000000
   H     31.62000000    16.39000000    22.98000000
   H     30.78000000    13.73000000    23.79000000
   H     29.58000000    15.02000000    23.60000000
   H     29.32000000    13.46000000    22.83000000
   H     33.33000000    15.63000000    20.63000000
   H     31.81000000    16.62000000    20.41000000
   H     33.13000000    17.18000000    21.44000000
   N     33.32000000    12.73000000    20.47000000
   C     34.66000000    12.23000000    20.70000000
   C     35.79000000    13.08000000    20.15000000
   O     36.97000000    12.83000000    20.40000000
   C     34.86000000    10.79000000    20.24000000
   C     34.97000000    10.66000000    18.72000000
   O     33.89000000     9.86000000    20.67000000
   H     33.17000000    13.14000000    19.57000000
   H     34.84000000    12.25000000    21.78000000
   H     35.81000000    10.44000000    20.65000000
   H     34.14000000     9.80000000    21.59000000
   H     34.07000000    11.04000000    18.23000000
   H     35.85000000    11.21000000    18.39000000
   H     35.06000000     9.63000000    18.37000000
   N     35.50000000    14.24000000    19.55000000
   C     36.40000000    15.12000000    18.83000000
   C     36.68000000    14.44000000    17.49000000
   O     36.60000000    13.22000000    17.34000000
   C     37.62000000    15.62000000    19.58000000
   C     37.31000000    16.18000000    20.96000000
   O     38.32000000    16.59000000    18.82000000
   H     34.52000000    14.45000000    19.43000000
   H     35.77000000    15.99000000    18.63000000
   H     38.34000000    14.81000000    19.70000000
   H     39.14000000    16.75000000    19.30000000
   H     36.43000000    16.83000000    20.95000000
   H     37.04000000    15.37000000    21.65000000
   H     38.19000000    16.67000000    21.35000000
   N     37.11000000    15.20000000    16.48000000
   C     37.60000000    14.82000000    15.17000000
   C     36.73000000    14.93000000    13.93000000
   O     37.01000000    14.19000000    13.00000000
   C     38.94000000    15.52000000    14.94000000
   C     40.10000000    15.09000000    15.83000000
   C     40.29000000    13.59000000    16.03000000
   C     41.49000000    13.35000000    16.94000000
   N     42.75000000    13.77000000    16.31000000
   H     37.07000000    16.19000000    16.64000000
   H     37.82000000    13.75000000    15.23000000
   H     38.84000000    16.60000000    15.07000000
   H     39.29000000    15.37000000    13.92000000
   H     39.92000000    15.53000000    16.81000000
   H     40.98000000    15.53000000    15.35000000
   H     40.57000000    13.13000000    15.08000000
   H     39.40000000    13.16000000    16.48000000
   H     41.46000000    12.28000000    17.17000000
   H     41.29000000    13.82000000    17.90000000
   H     43.46000000    13.93000000    17.01000000
   H     43.14000000    13.14000000    15.62000000
   H     42.70000000    14.67000000    15.86000000
   N     35.65000000    15.71000000    13.75000000
   C     34.97000000    16.67000000    14.59000000
   C     35.97000000    17.65000000    15.18000000
   O     36.00000000    17.94000000    16.37000000
   C     33.91000000    15.99000000    15.47000000
   C     33.24000000    16.95000000    16.45000000
   C     31.76000000    16.63000000    16.63000000
   O     30.89000000    16.78000000    15.74000000
   O     31.36000000    16.04000000    17.65000000
   H     35.22000000    15.63000000    12.85000000
   H     34.40000000    17.25000000    13.87000000
   H     34.36000000    15.16000000    16.02000000
   H     33.12000000    15.63000000    14.81000000
   H     33.34000000    17.95000000    16.05000000
   H     33.83000000    16.93000000    17.37000000
   N     36.83000000    18.26000000    14.36000000
   C     37.73000000    19.32000000    14.77000000
   H     38.63700000    19.27900000    14.16700000
   H     37.24400000    20.28500000    14.62900000
   H     37.98800000    19.19200000    15.82100000
   H     36.76000000    18.13000000    13.36000000
  Ca     28.81000000    15.81000000    17.02000000
   O     30.30000000    13.51000000    15.69000000
   H     29.53000000    12.95000000    15.63000000
   H     31.03000000    12.90000000    15.81000000
   O     28.77000000    18.61000000    16.70000000
   H     28.25000000    19.24000000    17.20000000
   H     29.42000000    19.15000000    16.25000000
   O     27.21000000    13.89000000    15.35000000
   H     26.44000000    13.60000000    15.85000000
   H     27.17000000    13.40000000    14.53000000
   O     28.86000000    17.30000000    19.69000000
   H     28.61000000    17.14000000    20.60000000
   H     29.54000000    17.97000000    19.74000000
   O     28.25000000    16.78000000    14.51000000
   H     28.44000000    16.42000000    13.64000000
   H     28.64000000    17.66000000    14.48000000

Ca 1.70



