%chk=loop2.cluster79.chk
%nprocshared=48
%mem=10GB
%nosave
#b3lyp/svp scf=(tight,noincore) Test 
#IOP(5/87=12) Density=Current Pop=(MK,readradii) iop(6/33=2) iop(6/42=6)

loop2.cluster79 

   -2  1 
   C     37.96000000    45.75000000    -0.03000000
   C     36.61000000    45.89000000     0.66000000
   O     36.37000000    46.88000000     1.34000000
   H     38.71800000    45.48500000     0.70700000
   H     37.90200000    44.96900000    -0.78800000
   H     38.22700000    46.69600000    -0.50200000
   N     35.62000000    45.01000000     0.55000000
   C     35.42000000    43.67000000     0.01000000
   C     34.63000000    42.70000000     0.87000000
   O     33.65000000    43.04000000     1.54000000
   C     34.73000000    43.63000000    -1.35000000
   C     33.55000000    44.57000000    -1.57000000
   O     33.15000000    44.88000000    -2.72000000
   O     32.97000000    45.02000000    -0.56000000
   H     34.77000000    45.39000000     0.95000000
   H     36.38000000    43.18000000    -0.07000000
   H     34.40000000    42.60000000    -1.46000000
   H     35.53000000    43.81000000    -2.06000000
   N     35.10000000    41.45000000     0.88000000
   C     34.65000000    40.31000000     1.65000000
   C     33.25000000    39.81000000     1.33000000
   O     33.15000000    38.67000000     0.89000000
   C     34.87000000    40.49000000     3.14000000
   H     35.83000000    41.25000000     0.20000000
   H     35.31000000    39.48000000     1.40000000
   H     34.37000000    39.73000000     3.73000000
   H     35.95000000    40.38000000     3.29000000
   H     34.69000000    41.50000000     3.52000000
   N     32.19000000    40.62000000     1.36000000
   C     30.98000000    40.45000000     0.59000000
   C     31.04000000    41.39000000    -0.61000000
   O     31.16000000    42.59000000    -0.43000000
   C     29.69000000    40.69000000     1.37000000
   C     29.69000000    41.65000000     2.54000000
   O     30.52000000    42.59000000     2.49000000
   O     28.92000000    41.50000000     3.51000000
   H     32.41000000    41.56000000     1.69000000
   H     30.91000000    39.43000000     0.19000000
   H     29.38000000    39.70000000     1.70000000
   H     28.85000000    40.92000000     0.72000000
   N     30.83000000    40.91000000    -1.84000000
   C     31.02000000    41.65000000    -3.07000000
   C     29.74000000    42.39000000    -3.43000000
   O     29.15000000    42.22000000    -4.50000000
   H     30.56000000    39.94000000    -1.95000000
   H     31.16000000    40.86000000    -3.81000000
   H     31.92000000    42.21000000    -2.83000000
   N     29.37000000    43.32000000    -2.55000000
   C     28.19000000    44.16000000    -2.46000000
   C     28.36000000    45.67000000    -2.47000000
   O     27.48000000    46.38000000    -1.98000000
   C     27.35000000    43.65000000    -1.29000000
   C     28.04000000    43.74000000     0.06000000
   N     27.43000000    43.17000000     1.11000000
   O     29.14000000    44.27000000     0.23000000
   H     29.96000000    43.40000000    -1.73000000
   H     27.61000000    43.82000000    -3.32000000
   H     27.02000000    42.62000000    -1.41000000
   H     26.42000000    44.22000000    -1.30000000
   H     26.69000000    42.53000000     0.88000000
   H     27.88000000    43.30000000     2.00000000
   N     29.57000000    46.16000000    -2.76000000
   C     30.10000000    47.49000000    -2.54000000
   C     30.57000000    47.75000000    -1.12000000
   O     30.86000000    46.79000000    -0.40000000
   H     30.32000000    45.52000000    -3.01000000
   H     29.29000000    48.16000000    -2.80000000
   H     30.95000000    47.73000000    -3.18000000
   N     30.64000000    48.96000000    -0.56000000
   C     30.28000000    50.28000000    -1.05000000
   C     31.27000000    51.39000000    -0.71000000
   O     31.23000000    52.39000000    -1.43000000
   C     28.89000000    50.76000000    -0.65000000
   C     28.61000000    51.03000000     0.82000000
   O     28.43000000    51.84000000    -1.44000000
   H     30.90000000    48.93000000     0.41000000
   H     30.31000000    50.23000000    -2.14000000
   H     28.25000000    49.89000000    -0.79000000
   H     28.40000000    51.46000000    -2.32000000
   H     29.17000000    50.24000000     1.32000000
   H     28.89000000    52.02000000     1.18000000
   H     27.52000000    51.05000000     0.92000000
   N     32.25000000    51.12000000     0.15000000
   C     33.22000000    52.03000000     0.73000000
   C     32.63000000    53.40000000     1.01000000
   O     32.90000000    54.35000000     0.28000000
   C     34.50000000    52.12000000    -0.10000000
   C     34.96000000    50.83000000    -0.77000000
   C     35.62000000    52.67000000     0.77000000
   C     36.26000000    50.88000000    -1.57000000
   H     32.37000000    50.22000000     0.58000000
   H     33.62000000    51.72000000     1.70000000
   H     34.24000000    52.78000000    -0.93000000
   H     34.27000000    50.44000000    -1.51000000
   H     34.94000000    50.00000000    -0.06000000
   H     35.20000000    53.48000000     1.36000000
   H     35.93000000    51.86000000     1.42000000
   H     36.40000000    52.97000000     0.07000000
   H     36.17000000    51.78000000    -2.18000000
   H     37.13000000    51.05000000    -0.94000000
   H     36.39000000    49.99000000    -2.18000000
   N     31.81000000    53.51000000     2.05000000
   C     31.52000000    52.52000000     3.07000000
   C     32.68000000    52.13000000     3.98000000
   O     32.55000000    51.09000000     4.63000000
   C     30.43000000    53.12000000     3.96000000
   C     30.67000000    54.46000000     4.63000000
   O     29.82000000    54.82000000     5.47000000
   O     31.58000000    55.25000000     4.31000000
   H     31.38000000    54.41000000     2.19000000
   H     31.10000000    51.61000000     2.64000000
   H     30.22000000    52.35000000     4.70000000
   H     29.48000000    53.17000000     3.42000000
   N     33.74000000    52.93000000     3.92000000
   C     34.83000000    52.78000000     4.86000000
   C     34.42000000    52.61000000     6.31000000
   O     33.52000000    53.31000000     6.76000000
   C     35.86000000    53.90000000     4.78000000
   C     35.44000000    55.33000000     5.04000000
   C     34.84000000    56.12000000     4.05000000
   C     35.77000000    55.84000000     6.31000000
   C     34.70000000    57.49000000     4.32000000
   C     35.44000000    57.16000000     6.62000000
   C     34.93000000    57.99000000     5.61000000
   H     33.71000000    53.66000000     3.22000000
   H     35.40000000    51.92000000     4.48000000
   H     36.03000000    53.91000000     3.70000000
   H     36.83000000    53.63000000     5.18000000
   H     34.62000000    55.67000000     3.10000000
   H     36.32000000    55.22000000     7.00000000
   H     34.31000000    58.16000000     3.57000000
   H     35.61000000    57.59000000     7.59000000
   H     34.82000000    59.05000000     5.78000000
   N     35.09000000    51.79000000     7.13000000
   C     36.34000000    51.10000000     6.89000000
   C     36.27000000    49.84000000     6.03000000
   O     35.29000000    49.68000000     5.31000000
   C     36.86000000    50.76000000     8.28000000
   C     36.22000000    51.81000000     9.19000000
   C     34.84000000    51.90000000     8.55000000
   H     37.06000000    51.80000000     6.47000000
   H     36.43000000    49.79000000     8.52000000
   H     37.95000000    50.75000000     8.22000000
   H     36.15000000    51.47000000    10.23000000
   H     36.74000000    52.76000000     9.11000000
   H     34.08000000    51.13000000     8.74000000
   H     34.40000000    52.81000000     8.97000000
   N     37.40000000    49.14000000     5.89000000
   C     37.55000000    48.15000000     4.83000000
   C     39.02000000    47.82000000     4.68000000
   O     39.42000000    46.67000000     4.87000000
   C     36.75000000    46.90000000     5.17000000
   C     36.76000000    46.52000000     6.65000000
   C     36.13000000    45.17000000     6.99000000
   O     34.91000000    44.99000000     6.80000000
   O     36.91000000    44.35000000     7.52000000
   H     38.24000000    49.33000000     6.41000000
   H     37.27000000    48.49000000     3.84000000
   H     37.05000000    46.08000000     4.52000000
   H     35.68000000    46.99000000     4.97000000
   H     36.29000000    47.27000000     7.28000000
   H     37.78000000    46.49000000     7.03000000
   N     39.94000000    48.69000000     4.25000000
   C     39.93000000    50.12000000     4.00000000
   H     39.79700000    50.65200000     4.94200000
   H     40.87600000    50.41700000     3.54600000
   H     39.11000000    50.36600000     3.32600000
   H     40.80000000    48.17000000     4.15000000
  Ca     31.37000000    44.80000000     1.43000000
   O     33.34000000    46.29000000     2.42000000
   H     33.82000000    45.82000000     3.10000000
   H     33.74000000    47.16000000     2.39000000
   O     31.18000000    44.72000000     4.14000000
   H     30.48000000    44.37000000     4.69000000
   H     31.79000000    45.12000000     4.76000000
   O     29.60000000    46.87000000     2.35000000
   H     29.38000000    47.11000000     3.24000000
   H     28.87000000    47.20000000     1.82000000

Ca 1.70



