%chk=loop2.cluster82.chk
%nprocshared=48
%mem=10GB
%nosave
#b3lyp/svp scf=(tight,noincore) Test 
#IOP(5/87=12) Density=Current Pop=(MK,readradii) iop(6/33=2) iop(6/42=6)

loop2.cluster82 

   -2  1 
   C     63.04000000    37.85000000   -18.93100000
   C     63.06000000    36.72000000   -19.95100000
   O     63.88000000    35.81000000   -19.80100000
   H     62.24100000    38.54800000   -19.17900000
   H     62.86800000    37.43900000   -17.93600000
   H     63.99600000    38.37300000   -18.94800000
   N     62.14000000    36.65000000   -20.91100000
   C     61.99000000    35.56000000   -21.85100000
   C     63.11000000    35.66000000   -22.87100000
   O     62.96000000    36.28000000   -23.92100000
   C     60.63000000    35.58000000   -22.54100000
   C     60.33000000    34.42000000   -23.48100000
   O     59.32000000    34.48000000   -24.22100000
   O     61.19000000    33.52000000   -23.56100000
   H     61.42000000    37.36000000   -20.83100000
   H     62.08000000    34.56000000   -21.43100000
   H     60.50000000    36.53000000   -23.07100000
   H     59.92000000    35.51000000   -21.72100000
   N     64.36000000    35.35000000   -22.52100000
   C     65.55000000    35.88000000   -23.15100000
   C     65.71000000    35.60000000   -24.63100000
   O     66.48000000    36.31000000   -25.26100000
   C     66.65000000    35.37000000   -22.22100000
   H     64.56000000    34.91000000   -21.63100000
   H     65.42000000    36.96000000   -23.08100000
   H     66.44000000    35.59000000   -21.18100000
   H     66.71000000    34.28000000   -22.24100000
   H     67.59000000    35.74000000   -22.63100000
   N     64.99000000    34.63000000   -25.22100000
   C     64.88000000    34.37000000   -26.64100000
   C     63.56000000    34.79000000   -27.26100000
   O     63.44000000    34.75000000   -28.49100000
   C     65.17000000    32.90000000   -26.94100000
   C     64.42000000    31.87000000   -26.11100000
   O     64.46000000    30.68000000   -26.51100000
   O     63.96000000    32.09000000   -24.97100000
   H     64.23000000    34.17000000   -24.76100000
   H     65.65000000    34.96000000   -27.12100000
   H     66.20000000    32.81000000   -26.61100000
   H     65.20000000    32.72000000   -28.02100000
   N     62.53000000    35.18000000   -26.51100000
   C     61.23000000    35.71000000   -26.90100000
   C     60.27000000    34.78000000   -27.63100000
   O     59.53000000    35.24000000   -28.50100000
   H     62.57000000    34.98000000   -25.52100000
   H     61.48000000    36.46000000   -27.65100000
   H     60.82000000    36.11000000   -25.98100000
   N     60.24000000    33.48000000   -27.35100000
   C     59.32000000    32.46000000   -27.82100000
   C     58.02000000    32.30000000   -27.04100000
   O     57.31000000    31.35000000   -27.38100000
   C     59.98000000    31.09000000   -27.93100000
   C     60.27000000    30.40000000   -26.60100000
   N     60.07000000    29.09000000   -26.47100000
   O     60.83000000    30.89000000   -25.62100000
   H     60.77000000    33.22000000   -26.53100000
   H     59.03000000    32.78000000   -28.81100000
   H     60.91000000    31.24000000   -28.47100000
   H     59.39000000    30.40000000   -28.54100000
   H     59.64000000    28.63000000   -27.26100000
   H     59.98000000    28.82000000   -25.50100000
   N     57.75000000    33.15000000   -26.05100000
   C     56.43000000    33.18000000   -25.46100000
   C     56.20000000    32.34000000   -24.21100000
   O     55.04000000    32.14000000   -23.87100000
   H     58.43000000    33.88000000   -25.88100000
   H     55.69000000    32.83000000   -26.18100000
   H     56.21000000    34.23000000   -25.28100000
   N     57.27000000    31.81000000   -23.61100000
   C     57.25000000    31.07000000   -22.37100000
   C     58.53000000    31.25000000   -21.56100000
   O     59.64000000    31.28000000   -22.08100000
   C     57.00000000    29.58000000   -22.61100000
   C     55.56000000    29.08000000   -22.44100000
   O     57.40000000    29.05000000   -23.85100000
   H     58.20000000    31.90000000   -23.98100000
   H     56.46000000    31.49000000   -21.75100000
   H     57.57000000    29.06000000   -21.84100000
   H     58.36000000    28.95000000   -23.79100000
   H     55.52000000    27.99000000   -22.48100000
   H     55.24000000    29.41000000   -21.46100000
   H     54.93000000    29.53000000   -23.20100000
   N     58.38000000    31.08000000   -20.24100000
   C     59.43000000    31.10000000   -19.24100000
   C     59.83000000    29.66000000   -18.97100000
   O     59.06000000    28.73000000   -18.75100000
   C     58.80000000    31.80000000   -18.04100000
   C     58.58000000    33.31000000   -18.16100000
   C     59.71000000    31.65000000   -16.82100000
   C     57.63000000    34.10000000   -17.27100000
   H     57.48000000    30.82000000   -19.86100000
   H     60.27000000    31.72000000   -19.57100000
   H     57.80000000    31.43000000   -17.81100000
   H     58.21000000    33.63000000   -19.13100000
   H     59.54000000    33.82000000   -18.14100000
   H     59.72000000    30.58000000   -16.64100000
   H     60.68000000    32.11000000   -17.02100000
   H     59.28000000    32.18000000   -15.97100000
   H     57.68000000    35.18000000   -17.44100000
   H     56.58000000    33.91000000   -17.50100000
   H     57.84000000    33.90000000   -16.22100000
   N     61.15000000    29.57000000   -19.20100000
   C     61.96000000    28.42000000   -18.86100000
   C     62.36000000    28.57000000   -17.40100000
   O     62.43000000    29.65000000   -16.82100000
   C     63.15000000    28.22000000   -19.80100000
   C     63.02000000    28.60000000   -21.27100000
   O     61.97000000    28.41000000   -21.91100000
   O     63.98000000    29.27000000   -21.70100000
   H     61.64000000    30.36000000   -19.58100000
   H     61.41000000    27.48000000   -18.99100000
   H     63.49000000    27.19000000   -19.82100000
   H     63.93000000    28.84000000   -19.36100000
   N     62.94000000    27.51000000   -16.82100000
   C     63.40000000    27.59000000   -15.45100000
   C     64.48000000    28.59000000   -15.08100000
   O     64.36000000    29.32000000   -14.10100000
   C     63.57000000    26.16000000   -14.94100000
   C     63.71000000    26.15000000   -13.44100000
   C     64.95000000    26.36000000   -12.82100000
   C     62.61000000    25.92000000   -12.61100000
   C     65.11000000    26.12000000   -11.45100000
   C     62.71000000    25.80000000   -11.22100000
   C     63.98000000    25.90000000   -10.65100000
   H     63.19000000    26.73000000   -17.41100000
   H     62.52000000    27.97000000   -14.94100000
   H     64.37000000    25.65000000   -15.47100000
   H     62.63000000    25.63000000   -15.09100000
   H     65.83000000    26.54000000   -13.42100000
   H     61.63000000    25.81000000   -13.05100000
   H     66.07000000    26.23000000   -10.97100000
   H     61.84000000    25.71000000   -10.58100000
   H     64.07000000    25.71000000    -9.59100000
   N     65.58000000    28.74000000   -15.83100000
   C     66.54000000    29.81000000   -15.68100000
   C     65.93000000    31.20000000   -15.79100000
   O     66.55000000    32.10000000   -15.23100000
   C     67.56000000    29.59000000   -16.80100000
   C     67.38000000    28.14000000   -17.23100000
   C     65.89000000    27.93000000   -16.99100000
   H     67.00000000    29.73000000   -14.70100000
   H     67.25000000    30.16000000   -17.67100000
   H     68.59000000    29.80000000   -16.51100000
   H     67.64000000    28.06000000   -18.29100000
   H     67.96000000    27.55000000   -16.52100000
   H     65.36000000    28.38000000   -17.83100000
   H     65.63000000    26.88000000   -16.91100000
   N     64.91000000    31.43000000   -16.62100000
   C     64.23000000    32.69000000   -16.83100000
   C     63.40000000    32.98000000   -15.59100000
   O     63.35000000    34.10000000   -15.07100000
   C     63.47000000    32.57000000   -18.15100000
   C     64.38000000    32.14000000   -19.30100000
   C     63.61000000    32.26000000   -20.61100000
   O     64.14000000    32.49000000   -21.72100000
   O     62.42000000    31.88000000   -20.61100000
   H     64.50000000    30.62000000   -17.06100000
   H     64.97000000    33.49000000   -16.86100000
   H     62.91000000    33.49000000   -18.31100000
   H     62.71000000    31.79000000   -18.08100000
   H     64.73000000    31.12000000   -19.14100000
   H     65.22000000    32.84000000   -19.26100000
   N     62.70000000    31.97000000   -15.07100000
   C     61.94000000    31.98000000   -13.84100000
   H     60.94800000    31.56700000   -14.02400000
   H     62.45200000    31.37500000   -13.09200000
   H     61.84600000    33.00400000   -13.48000000
   H     62.79000000    31.15000000   -15.65100000
  Ca     62.27000000    31.22000000   -23.10100000
   O     63.36000000    29.22000000   -24.66100000
   H     63.21000000    28.36000000   -25.06100000
   H     63.78000000    29.73000000   -25.35100000

Ca 1.70



