%chk=loop1.cluster52.chk
%nprocshared=48
%mem=10GB
%nosave
#b3lyp/svp scf=(tight,noincore) Test 
#IOP(5/87=12) Density=Current Pop=(MK,readradii) iop(6/33=2) iop(6/42=6)

loop1.cluster52 

   0  1 
   C     39.88000000    45.13000000    54.62000000
   C     38.95000000    45.24000000    53.43000000
   O     37.85000000    45.78000000    53.56000000
   H     40.76100000    45.74900000    54.45100000
   H     39.36400000    45.47100000    55.51800000
   H     40.18600000    44.09200000    54.74800000
   N     39.46000000    44.87000000    52.25000000
   C     38.69000000    44.91000000    51.03000000
   C     38.12000000    43.52000000    50.82000000
   O     38.63000000    42.53000000    51.36000000
   C     39.59000000    45.33000000    49.87000000
   C     38.97000000    45.50000000    48.49000000
   O     37.74000000    45.57000000    48.28000000
   O     39.78000000    45.78000000    47.57000000
   H     40.20000000    44.19000000    52.29000000
   H     37.78000000    45.52000000    51.13000000
   H     40.38000000    44.58000000    49.76000000
   H     39.94000000    46.34000000    50.09000000
   N     37.13000000    43.40000000    49.93000000
   C     36.40000000    42.17000000    49.68000000
   C     37.26000000    40.94000000    49.40000000
   O     37.04000000    39.86000000    49.94000000
   C     35.47000000    42.48000000    48.51000000
   C     34.64000000    41.28000000    48.08000000
   C     33.73000000    41.61000000    46.90000000
   C     33.30000000    40.37000000    46.12000000
   N     32.21000000    39.72000000    46.86000000
   H     36.86000000    44.23000000    49.42000000
   H     35.73000000    41.98000000    50.52000000
   H     36.06000000    42.88000000    47.67000000
   H     34.81000000    43.26000000    48.90000000
   H     34.12000000    40.80000000    48.91000000
   H     35.41000000    40.61000000    47.69000000
   H     34.31000000    42.14000000    46.14000000
   H     32.90000000    42.25000000    47.20000000
   H     34.14000000    39.67000000    46.03000000
   H     32.83000000    40.60000000    45.17000000
   H     31.69000000    39.03000000    46.33000000
   H     32.57000000    39.11000000    47.58000000
   H     31.65000000    40.42000000    47.33000000
   N     38.26000000    40.91000000    48.52000000
   C     38.79000000    41.85000000    47.55000000
   C     40.31000000    41.83000000    47.49000000
   O     40.98000000    40.86000000    47.86000000
   C     38.15000000    41.47000000    46.22000000
   C     38.20000000    42.64000000    45.25000000
   O     38.18000000    43.83000000    45.65000000
   O     38.40000000    42.39000000    44.05000000
   H     38.72000000    40.03000000    48.35000000
   H     38.50000000    42.86000000    47.86000000
   H     37.08000000    41.31000000    46.34000000
   H     38.52000000    40.52000000    45.83000000
   N     40.88000000    42.92000000    46.97000000
   C     42.31000000    43.17000000    46.95000000
   C     42.69000000    44.46000000    46.24000000
   O     43.42000000    45.25000000    46.84000000
   H     40.32000000    43.72000000    46.73000000
   H     42.81000000    42.39000000    46.38000000
   H     42.61000000    43.33000000    47.98000000
   N     42.31000000    44.62000000    44.97000000
   C     42.72000000    45.84000000    44.31000000
   C     44.21000000    45.80000000    43.98000000
   O     44.78000000    44.71000000    43.87000000
   C     41.94000000    46.05000000    43.02000000
   C     40.42000000    46.11000000    43.13000000
   O     39.77000000    46.37000000    44.17000000
   O     39.77000000    45.98000000    42.07000000
   H     41.63000000    43.98000000    44.59000000
   H     42.55000000    46.64000000    45.03000000
   H     42.24000000    45.31000000    42.27000000
   H     42.17000000    47.06000000    42.68000000
   N     44.90000000    46.94000000    43.89000000
   C     44.40000000    48.29000000    44.04000000
   C     43.95000000    48.99000000    42.77000000
   O     43.16000000    49.93000000    42.86000000
   H     45.85000000    46.88000000    43.55000000
   H     45.19000000    48.93000000    44.44000000
   H     43.65000000    48.37000000    44.82000000
   N     44.20000000    48.43000000    41.58000000
   C     44.11000000    49.04000000    40.27000000
   C     44.90000000    50.34000000    40.38000000
   O     44.32000000    51.42000000    40.34000000
   C     42.66000000    49.21000000    39.84000000
   C     41.94000000    47.88000000    39.68000000
   O     42.52000000    49.89000000    38.61000000
   H     44.60000000    47.51000000    41.55000000
   H     44.56000000    48.34000000    39.55000000
   H     42.13000000    49.85000000    40.55000000
   H     42.49000000    50.82000000    38.85000000
   H     40.90000000    48.03000000    39.38000000
   H     42.35000000    47.31000000    38.84000000
   H     42.03000000    47.16000000    40.50000000
   N     46.21000000    50.17000000    40.57000000
   C     47.32000000    51.10000000    40.58000000
   C     47.53000000    51.80000000    39.24000000
   O     48.66000000    51.89000000    38.77000000
   C     47.42000000    52.00000000    41.80000000
   C     47.01000000    51.45000000    43.16000000
   C     48.72000000    52.79000000    41.92000000
   C     47.86000000    50.34000000    43.78000000
   H     46.49000000    49.21000000    40.65000000
   H     48.20000000    50.46000000    40.65000000
   H     46.75000000    52.84000000    41.59000000
   H     45.98000000    51.08000000    43.14000000
   H     47.17000000    52.31000000    43.81000000
   H     48.73000000    53.37000000    42.85000000
   H     49.64000000    52.20000000    41.93000000
   H     48.74000000    53.58000000    41.17000000
   H     47.57000000    50.14000000    44.81000000
   H     47.65000000    49.47000000    43.17000000
   H     48.89000000    50.70000000    43.81000000
   N     46.50000000    52.48000000    38.72000000
   C     46.51000000    52.97000000    37.36000000
   C     46.17000000    54.45000000    37.30000000
   O     45.77000000    55.08000000    38.28000000
   C     45.54000000    52.14000000    36.53000000
   C     44.07000000    52.38000000    36.89000000
   O     45.72000000    50.74000000    36.49000000
   H     45.59000000    52.33000000    39.14000000
   H     47.45000000    52.71000000    36.88000000
   H     45.69000000    52.51000000    35.52000000
   H     46.46000000    50.61000000    35.89000000
   H     43.84000000    53.40000000    36.60000000
   H     43.40000000    51.68000000    36.38000000
   H     43.96000000    52.18000000    37.96000000
   N     46.15000000    55.07000000    36.12000000
   C     45.78000000    56.46000000    35.94000000
   C     44.27000000    56.64000000    35.78000000
   O     43.74000000    56.16000000    34.78000000
   C     46.61000000    57.03000000    34.79000000
   C     48.11000000    56.97000000    35.11000000
   O     46.28000000    56.27000000    33.65000000
   H     46.45000000    54.48000000    35.36000000
   H     46.01000000    57.01000000    36.85000000
   H     46.29000000    58.05000000    34.59000000
   H     46.81000000    55.47000000    33.58000000
   H     48.16000000    57.60000000    36.00000000
   H     48.37000000    55.94000000    35.32000000
   H     48.75000000    57.32000000    34.31000000
   N     43.64000000    57.34000000    36.72000000
   C     42.20000000    57.52000000    36.74000000
   C     41.45000000    56.22000000    36.98000000
   O     40.79000000    55.73000000    36.07000000
   C     41.63000000    58.22000000    35.50000000
   C     42.36000000    59.54000000    35.29000000
   C     42.13000000    60.16000000    33.92000000
   C     42.63000000    61.60000000    33.87000000
   N     41.81000000    62.43000000    34.78000000
   H     44.12000000    57.46000000    37.59000000
   H     42.00000000    58.22000000    37.55000000
   H     40.59000000    58.48000000    35.68000000
   H     41.57000000    57.59000000    34.62000000
   H     43.44000000    59.40000000    35.28000000
   H     42.08000000    60.21000000    36.11000000
   H     41.08000000    60.14000000    33.62000000
   H     42.67000000    59.46000000    33.28000000
   H     42.52000000    61.94000000    32.84000000
   H     43.68000000    61.65000000    34.15000000
   H     41.91000000    62.18000000    35.75000000
   H     42.09000000    63.40000000    34.87000000
   H     40.83000000    62.46000000    34.53000000
   N     41.63000000    55.74000000    38.21000000
   C     40.94000000    54.60000000    38.77000000
   C     41.74000000    53.57000000    39.55000000
   O     41.50000000    52.37000000    39.44000000
   C     39.68000000    55.02000000    39.52000000
   C     38.86000000    53.93000000    40.19000000
   C     37.64000000    54.39000000    40.99000000
   O     37.84000000    55.15000000    41.95000000
   O     36.51000000    53.99000000    40.62000000
   H     42.32000000    56.25000000    38.74000000
   H     40.52000000    53.97000000    37.98000000
   H     39.06000000    55.62000000    38.85000000
   H     39.89000000    55.70000000    40.35000000
   H     39.52000000    53.42000000    40.89000000
   H     38.64000000    53.19000000    39.42000000
   N     42.81000000    53.88000000    40.30000000
   C     43.32000000    55.18000000    40.69000000
   H     44.25800000    55.37300000    40.17000000
   H     42.59400000    55.95000000    40.42600000
   H     43.49200000    55.19500000    41.76600000
   H     43.34000000    53.13000000    40.71000000
  Ca     37.86000000    46.51000000    45.82000000
   O     36.02000000    47.77000000    47.12000000
   H     36.34000000    48.09000000    47.96000000
   H     35.32000000    48.38000000    46.88000000
   O     35.29000000    45.53000000    45.45000000
   H     34.65000000    44.93000000    45.09000000
   H     34.77000000    46.24000000    45.84000000
   O     36.81000000    48.36000000    44.12000000
   H     36.87000000    48.46000000    43.17000000
   H     36.31000000    49.12000000    44.41000000
   O     38.97000000    48.97000000    46.59000000
   H     39.59000000    49.07000000    47.31000000
   H     39.09000000    49.75000000    46.05000000

Ca 1.70



