%chk=loop2.cluster26.chk
%nprocshared=48
%mem=10GB
%nosave
#b3lyp/svp scf=(tight,noincore) Test 
#IOP(5/87=12) Density=Current Pop=(MK,readradii) iop(6/33=2) iop(6/42=6)

loop2.cluster26 

   -2  1 
   C     86.86000000    78.91000000    24.52000000
   C     88.36000000    79.07000000    24.66000000
   O     88.89000000    80.17000000    24.51000000
   H     86.39100000    79.89400000    24.49300000
   H     86.63600000    78.37600000    23.59700000
   H     86.47300000    78.34700000    25.36900000
   N     89.12000000    78.03000000    24.99000000
   C     90.53000000    78.13000000    25.30000000
   C     90.68000000    78.84000000    26.64000000
   O     90.89000000    78.23000000    27.69000000
   C     91.15000000    76.75000000    25.08000000
   C     92.67000000    76.69000000    25.19000000
   O     93.35000000    77.64000000    25.62000000
   O     93.17000000    75.57000000    24.98000000
   H     88.57000000    77.23000000    25.29000000
   H     90.99000000    78.74000000    24.52000000
   H     90.94000000    76.37000000    24.08000000
   H     90.68000000    76.09000000    25.80000000
   N     90.58000000    80.16000000    26.76000000
   C     90.43000000    80.92000000    27.98000000
   C     89.00000000    81.26000000    28.37000000
   O     88.12000000    81.41000000    27.52000000
   C     91.26000000    82.20000000    27.89000000
   H     90.40000000    80.67000000    25.90000000
   H     90.74000000    80.32000000    28.84000000
   H     92.31000000    81.93000000    27.75000000
   H     90.89000000    82.83000000    27.08000000
   H     91.34000000    82.72000000    28.85000000
   N     88.62000000    81.32000000    29.65000000
   C     89.43000000    81.52000000    30.83000000
   C     89.28000000    80.40000000    31.85000000
   O     88.38000000    79.58000000    31.71000000
   C     89.10000000    82.81000000    31.57000000
   C     89.25000000    84.13000000    30.82000000
   O     90.26000000    84.36000000    30.12000000
   O     88.27000000    84.90000000    30.85000000
   H     87.63000000    81.28000000    29.80000000
   H     90.48000000    81.56000000    30.51000000
   H     89.69000000    82.91000000    32.48000000
   H     88.06000000    82.85000000    31.89000000
   N     90.16000000    80.37000000    32.86000000
   C     90.36000000    79.27000000    33.78000000
   C     90.69000000    77.98000000    33.03000000
   O     91.51000000    77.86000000    32.12000000
   H     90.94000000    81.01000000    32.85000000
   H     89.42000000    79.20000000    34.32000000
   H     91.08000000    79.37000000    34.59000000
   N     90.14000000    76.81000000    33.33000000
   C     89.41000000    76.50000000    34.54000000
   C     87.99000000    77.02000000    34.74000000
   O     87.46000000    76.83000000    35.83000000
   C     89.50000000    74.99000000    34.74000000
   C     90.85000000    74.29000000    34.72000000
   N     91.44000000    74.03000000    35.90000000
   O     91.35000000    74.03000000    33.63000000
   H     90.46000000    76.04000000    32.76000000
   H     89.96000000    77.08000000    35.29000000
   H     88.85000000    74.52000000    34.01000000
   H     89.06000000    74.74000000    35.71000000
   H     90.85000000    74.09000000    36.72000000
   H     92.36000000    73.62000000    35.93000000
   N     87.44000000    77.69000000    33.72000000
   C     86.02000000    77.99000000    33.78000000
   C     85.71000000    79.28000000    34.53000000
   O     84.70000000    79.38000000    35.22000000
   H     87.83000000    77.85000000    32.81000000
   H     85.49000000    77.18000000    34.28000000
   H     85.72000000    78.03000000    32.73000000
   N     86.59000000    80.28000000    34.45000000
   C     86.56000000    81.62000000    34.98000000
   C     85.71000000    82.51000000    34.08000000
   O     85.97000000    83.70000000    33.93000000
   C     87.94000000    82.24000000    35.18000000
   C     88.02000000    83.29000000    36.27000000
   O     88.79000000    81.31000000    35.83000000
   H     87.40000000    80.12000000    33.87000000
   H     86.09000000    81.64000000    35.97000000
   H     88.33000000    82.58000000    34.22000000
   H     89.69000000    81.63000000    35.81000000
   H     88.94000000    83.85000000    36.09000000
   H     87.18000000    83.98000000    36.13000000
   H     87.84000000    82.83000000    37.24000000
   N     84.59000000    82.00000000    33.55000000
   C     83.83000000    82.66000000    32.51000000
   C     82.91000000    83.75000000    33.04000000
   O     82.43000000    83.72000000    34.17000000
   C     83.06000000    81.64000000    31.67000000
   C     83.91000000    80.54000000    31.05000000
   C     82.01000000    81.02000000    32.59000000
   C     85.17000000    80.89000000    30.26000000
   H     84.28000000    81.11000000    33.91000000
   H     84.53000000    83.21000000    31.87000000
   H     82.62000000    82.07000000    30.76000000
   H     83.28000000    79.97000000    30.36000000
   H     84.20000000    79.90000000    31.87000000
   H     82.55000000    80.71000000    33.48000000
   H     81.22000000    81.66000000    33.00000000
   H     81.55000000    80.26000000    31.97000000
   H     85.80000000    81.53000000    30.88000000
   H     85.68000000    79.96000000    29.99000000
   H     84.99000000    81.39000000    29.31000000
   N     82.49000000    84.64000000    32.13000000
   C     81.51000000    85.70000000    32.27000000
   C     80.23000000    85.41000000    31.50000000
   O     80.19000000    84.38000000    30.83000000
   C     82.04000000    87.07000000    31.83000000
   C     82.61000000    87.05000000    30.42000000
   O     83.75000000    86.59000000    30.21000000
   O     81.88000000    87.57000000    29.54000000
   H     82.79000000    84.46000000    31.19000000
   H     81.27000000    85.72000000    33.33000000
   H     82.88000000    87.31000000    32.49000000
   H     81.28000000    87.85000000    31.81000000
   N     79.21000000    86.26000000    31.65000000
   C     77.87000000    86.10000000    31.14000000
   C     77.88000000    85.58000000    29.71000000
   O     77.58000000    84.41000000    29.50000000
   C     77.03000000    85.28000000    32.12000000
   C     75.58000000    85.72000000    32.16000000
   C     74.73000000    85.46000000    31.07000000
   C     75.03000000    86.54000000    33.14000000
   C     73.46000000    86.01000000    30.93000000
   C     73.76000000    87.13000000    33.07000000
   C     72.95000000    86.81000000    31.97000000
   H     79.29000000    86.97000000    32.36000000
   H     77.48000000    87.12000000    31.14000000
   H     77.48000000    85.47000000    33.09000000
   H     77.12000000    84.23000000    31.85000000
   H     75.05000000    84.82000000    30.26000000
   H     75.65000000    86.80000000    33.98000000
   H     72.88000000    85.70000000    30.08000000
   H     73.50000000    87.79000000    33.88000000
   H     71.95000000    87.21000000    31.92000000
   N     78.02000000    86.41000000    28.68000000
   C     77.95000000    86.00000000    27.29000000
   C     79.07000000    85.06000000    26.87000000
   O     79.07000000    84.50000000    25.77000000
   C     77.84000000    87.32000000    26.54000000
   C     78.72000000    88.20000000    27.43000000
   C     78.31000000    87.82000000    28.85000000
   H     76.97000000    85.53000000    27.14000000
   H     78.39000000    87.29000000    25.60000000
   H     76.87000000    87.80000000    26.41000000
   H     79.78000000    87.97000000    27.35000000
   H     78.47000000    89.24000000    27.21000000
   H     79.04000000    88.06000000    29.62000000
   H     77.37000000    88.33000000    29.05000000
   N     79.94000000    84.68000000    27.81000000
   C     81.03000000    83.74000000    27.62000000
   C     80.73000000    82.35000000    28.13000000
   O     80.99000000    81.40000000    27.40000000
   C     82.26000000    84.32000000    28.31000000
   C     83.55000000    83.70000000    27.78000000
   C     84.81000000    84.45000000    28.22000000
   O     85.36000000    84.19000000    29.31000000
   O     85.18000000    85.46000000    27.59000000
   H     79.80000000    85.08000000    28.72000000
   H     81.27000000    83.65000000    26.56000000
   H     82.18000000    84.17000000    29.39000000
   H     82.36000000    85.39000000    28.12000000
   H     83.58000000    83.81000000    26.70000000
   H     83.47000000    82.64000000    28.00000000
   N     79.99000000    82.13000000    29.23000000
   C     79.25000000    80.92000000    29.55000000
   H     78.28700000    80.93800000    29.04000000
   H     79.81800000    80.04900000    29.22200000
   H     79.08900000    80.86600000    30.62700000
   H     79.77000000    82.99000000    29.71000000
  Ca     86.38000000    86.43000000    29.86000000
   O     85.84000000    86.10000000    32.37000000
   H     85.03000000    86.50000000    32.69000000
   H     85.94000000    85.31000000    32.91000000
   O     88.85000000    87.68000000    30.40000000
   H     89.09000000    88.02000000    29.53000000
   H     89.67000000    87.71000000    30.89000000
   O     88.05000000    85.32000000    27.99000000
   H     88.62000000    84.77000000    28.52000000
   H     87.43000000    84.70000000    27.60000000
   O     85.95000000    88.44000000    28.16000000
   H     86.00000000    89.39000000    28.32000000
   H     85.14000000    88.33000000    27.65000000

Ca 1.70



