%chk=loop2.cluster95.chk
%nprocshared=48
%mem=10GB
%nosave
#b3lyp/svp scf=(tight,noincore) Test 
#IOP(5/87=12) Density=Current Pop=(MK,readradii) iop(6/33=2) iop(6/42=6)

loop2.cluster95 

   -2  1 
   C     55.99000000    36.63000000    24.96000000
   C     55.75000000    36.30000000    23.49000000
   O     54.75000000    35.66000000    23.17000000
   H     56.73200000    37.42500000    25.03700000
   H     55.05600000    36.96000000    25.41600000
   H     56.35400000    35.74300000    25.47700000
   N     56.56000000    36.77000000    22.54000000
   C     56.19000000    36.92000000    21.15000000
   C     56.21000000    35.58000000    20.43000000
   O     55.29000000    35.12000000    19.77000000
   C     56.95000000    38.07000000    20.50000000
   C     56.90000000    38.28000000    18.99000000
   O     57.93000000    38.26000000    18.28000000
   O     55.77000000    38.24000000    18.44000000
   H     57.39000000    37.26000000    22.85000000
   H     55.12000000    37.14000000    21.14000000
   H     58.01000000    37.95000000    20.72000000
   H     56.63000000    39.02000000    20.94000000
   N     57.33000000    34.85000000    20.54000000
   C     57.71000000    33.66000000    19.81000000
   C     56.77000000    32.46000000    19.87000000
   O     56.94000000    31.52000000    19.10000000
   C     58.25000000    34.08000000    18.45000000
   H     58.08000000    35.12000000    21.16000000
   H     58.60000000    33.33000000    20.34000000
   H     57.44000000    34.57000000    17.91000000
   H     59.11000000    34.76000000    18.46000000
   H     58.45000000    33.18000000    17.87000000
   N     55.81000000    32.49000000    20.79000000
   C     54.72000000    31.52000000    20.78000000
   C     54.00000000    31.49000000    19.44000000
   O     53.47000000    30.46000000    19.02000000
   C     55.17000000    30.16000000    21.31000000
   C     55.89000000    30.03000000    22.65000000
   O     56.94000000    30.70000000    22.80000000
   O     55.53000000    29.14000000    23.44000000
   H     55.88000000    33.20000000    21.51000000
   H     53.98000000    31.91000000    21.48000000
   H     55.92000000    29.75000000    20.64000000
   H     54.32000000    29.48000000    21.36000000
   N     53.97000000    32.64000000    18.76000000
   C     53.36000000    32.99000000    17.49000000
   C     51.87000000    32.69000000    17.50000000
   O     51.09000000    33.63000000    17.54000000
   H     54.43000000    33.38000000    19.27000000
   H     53.80000000    32.39000000    16.70000000
   H     53.46000000    34.06000000    17.32000000
   N     51.54000000    31.40000000    17.35000000
   C     50.23000000    30.80000000    17.37000000
   C     49.42000000    31.12000000    18.62000000
   O     49.87000000    30.86000000    19.74000000
   C     50.36000000    29.31000000    17.07000000
   C     49.22000000    28.48000000    17.65000000
   N     49.58000000    27.66000000    18.65000000
   O     48.14000000    28.38000000    17.08000000
   H     52.28000000    30.72000000    17.39000000
   H     49.66000000    31.27000000    16.57000000
   H     51.23000000    28.85000000    17.54000000
   H     50.33000000    29.12000000    16.00000000
   H     50.44000000    27.72000000    19.17000000
   H     48.90000000    26.94000000    18.85000000
   N     48.21000000    31.66000000    18.49000000
   C     47.48000000    31.96000000    19.71000000
   C     47.94000000    33.20000000    20.46000000
   O     47.21000000    33.55000000    21.39000000
   H     47.89000000    32.07000000    17.62000000
   H     47.50000000    31.10000000    20.38000000
   H     46.40000000    32.05000000    19.63000000
   N     49.18000000    33.63000000    20.23000000
   C     49.80000000    34.77000000    20.88000000
   C     49.73000000    34.66000000    22.40000000
   O     50.10000000    33.60000000    22.89000000
   C     51.26000000    35.03000000    20.52000000
   C     51.99000000    36.18000000    21.21000000
   O     52.07000000    33.90000000    20.74000000
   H     49.76000000    33.10000000    19.59000000
   H     49.30000000    35.69000000    20.60000000
   H     51.15000000    35.31000000    19.47000000
   H     52.49000000    33.98000000    21.60000000
   H     52.31000000    35.80000000    22.18000000
   H     52.92000000    36.42000000    20.69000000
   H     51.40000000    37.09000000    21.19000000
   N     49.31000000    35.72000000    23.10000000
   C     49.28000000    35.90000000    24.54000000
   C     50.49000000    35.27000000    25.22000000
   O     51.65000000    35.54000000    24.92000000
   C     49.10000000    37.39000000    24.81000000
   C     48.67000000    37.59000000    26.26000000
   C     50.32000000    38.22000000    24.42000000
   C     48.54000000    39.04000000    26.70000000
   H     48.88000000    36.45000000    22.55000000
   H     48.45000000    35.33000000    24.96000000
   H     48.30000000    37.82000000    24.21000000
   H     49.32000000    37.11000000    27.00000000
   H     47.72000000    37.11000000    26.50000000
   H     51.13000000    38.00000000    25.11000000
   H     50.52000000    37.82000000    23.43000000
   H     50.07000000    39.29000000    24.38000000
   H     49.46000000    39.57000000    26.44000000
   H     47.78000000    39.48000000    26.05000000
   H     48.22000000    39.16000000    27.74000000
   N     50.17000000    34.31000000    26.08000000
   C     50.94000000    33.12000000    26.41000000
   C     50.21000000    31.82000000    26.12000000
   O     50.37000000    30.83000000    26.83000000
   C     51.42000000    33.20000000    27.86000000
   C     52.44000000    32.13000000    28.23000000
   O     53.43000000    31.91000000    27.50000000
   O     52.36000000    31.42000000    29.26000000
   H     49.26000000    34.38000000    26.52000000
   H     51.83000000    33.04000000    25.78000000
   H     50.51000000    33.18000000    28.45000000
   H     51.91000000    34.17000000    27.97000000
   N     49.33000000    31.82000000    25.12000000
   C     48.48000000    30.75000000    24.64000000
   C     47.22000000    30.59000000    25.48000000
   O     47.01000000    29.46000000    25.90000000
   C     48.22000000    31.04000000    23.16000000
   C     47.47000000    29.88000000    22.55000000
   C     48.17000000    28.73000000    22.18000000
   C     46.08000000    29.92000000    22.41000000
   C     47.47000000    27.65000000    21.64000000
   C     45.38000000    28.80000000    21.93000000
   C     46.08000000    27.66000000    21.51000000
   H     49.46000000    32.57000000    24.46000000
   H     49.09000000    29.85000000    24.63000000
   H     49.16000000    31.21000000    22.63000000
   H     47.61000000    31.93000000    23.06000000
   H     49.23000000    28.63000000    22.39000000
   H     45.46000000    30.76000000    22.70000000
   H     48.03000000    26.76000000    21.38000000
   H     44.30000000    28.87000000    21.90000000
   H     45.52000000    26.82000000    21.14000000
   N     46.44000000    31.61000000    25.84000000
   C     46.57000000    33.05000000    25.72000000
   C     46.82000000    33.72000000    27.06000000
   O     47.63000000    34.64000000    27.12000000
   C     45.34000000    33.43000000    24.89000000
   C     44.27000000    32.51000000    25.47000000
   C     45.03000000    31.27000000    25.93000000
   H     47.44000000    33.42000000    25.17000000
   H     45.12000000    34.48000000    25.12000000
   H     45.55000000    33.23000000    23.84000000
   H     43.84000000    32.99000000    26.34000000
   H     43.46000000    32.23000000    24.80000000
   H     44.85000000    31.07000000    26.98000000
   H     44.76000000    30.40000000    25.32000000
   N     46.28000000    33.30000000    28.21000000
   C     46.30000000    33.94000000    29.51000000
   C     47.71000000    34.15000000    30.06000000
   O     48.59000000    33.30000000    30.09000000
   C     45.58000000    32.95000000    30.43000000
   C     45.57000000    33.32000000    31.91000000
   C     44.59000000    32.40000000    32.62000000
   O     45.05000000    31.41000000    33.23000000
   O     43.37000000    32.65000000    32.64000000
   H     45.89000000    32.38000000    28.11000000
   H     45.75000000    34.87000000    29.45000000
   H     45.89000000    31.92000000    30.26000000
   H     44.57000000    32.98000000    30.01000000
   H     45.32000000    34.38000000    32.04000000
   H     46.55000000    33.19000000    32.37000000
   N     47.92000000    35.40000000    30.50000000
   C     49.23000000    35.99000000    30.69000000
   H     49.92900000    35.56100000    29.97200000
   H     49.16900000    37.06800000    30.53800000
   H     49.57900000    35.78400000    31.70200000
   H     47.20000000    36.09000000    30.34000000
  Ca     54.19000000    28.72000000    25.47000000
   O     55.39000000    26.25000000    25.94000000
   H     55.13000000    25.36000000    25.71000000
   H     56.33000000    26.26000000    25.81000000
   O     52.07000000    27.32000000    26.45000000
   H     51.46000000    27.20000000    25.72000000
   H     51.56000000    27.11000000    27.23000000
   O     54.14000000    31.49000000    25.04000000
   H     54.00000000    31.89000000    25.90000000
   H     54.05000000    32.21000000    24.42000000
   O     53.57000000    29.31000000    27.90000000
   H     53.10000000    28.67000000    28.43000000
   H     53.37000000    30.15000000    28.31000000
   O     56.55000000    29.15000000    26.73000000
   H     57.43000000    29.18000000    26.36000000
   H     56.69000000    29.23000000    27.68000000
   O     53.73000000    26.74000000    23.66000000
   H     53.76000000    25.80000000    23.50000000
   H     53.81000000    27.13000000    22.79000000
   O     52.14000000    29.19000000    23.87000000
   H     51.39000000    28.61000000    24.01000000
   H     51.94000000    29.64000000    23.05000000

Ca 1.70



