%chk=loop2.cluster164.chk
%nprocshared=48
%mem=10GB
%nosave
#b3lyp/svp scf=(tight,noincore) Test 
#IOP(5/87=12) Density=Current Pop=(MK,readradii) iop(6/33=2) iop(6/42=6)

loop2.cluster164 

   -2  1 
   C     78.90000000    42.60000000    35.09000000
   C     78.57000000    42.69000000    33.61000000
   O     77.45000000    42.34000000    33.26000000
   H     79.71100000    43.29000000    35.32400000
   H     78.01900000    42.86300000    35.67600000
   H     79.20800000    41.58300000    35.33300000
   N     79.47000000    43.18000000    32.75000000
   C     79.31000000    43.21000000    31.31000000
   C     78.76000000    44.56000000    30.86000000
   O     79.47000000    45.42000000    30.33000000
   C     80.45000000    42.64000000    30.48000000
   C     81.82000000    42.94000000    31.07000000
   O     82.05000000    42.55000000    32.24000000
   O     82.58000000    43.71000000    30.44000000
   H     80.37000000    43.36000000    33.18000000
   H     78.47000000    42.56000000    31.09000000
   H     80.44000000    43.04000000    29.47000000
   H     80.35000000    41.55000000    30.45000000
   N     77.57000000    44.87000000    31.37000000
   C     76.87000000    46.12000000    31.16000000
   C     75.97000000    46.45000000    32.35000000
   O     75.50000000    45.53000000    33.02000000
   C     76.15000000    45.95000000    29.82000000
   H     77.12000000    44.14000000    31.90000000
   H     77.57000000    46.95000000    31.07000000
   H     76.86000000    45.82000000    29.01000000
   H     75.50000000    45.08000000    29.80000000
   H     75.65000000    46.86000000    29.50000000
   N     75.52000000    47.69000000    32.57000000
   C     76.06000000    48.84000000    31.87000000
   C     77.50000000    49.17000000    32.21000000
   O     78.09000000    48.62000000    33.14000000
   C     75.24000000    50.06000000    32.29000000
   C     73.72000000    50.04000000    32.23000000
   O     73.05000000    51.01000000    32.65000000
   O     73.08000000    49.11000000    31.70000000
   H     74.98000000    47.82000000    33.41000000
   H     76.00000000    48.62000000    30.80000000
   H     75.58000000    50.88000000    31.65000000
   H     75.44000000    50.35000000    33.31000000
   N     78.04000000    50.17000000    31.52000000
   C     79.37000000    50.64000000    31.85000000
   C     80.36000000    49.56000000    31.44000000
   O     80.17000000    48.78000000    30.51000000
   H     77.52000000    50.72000000    30.85000000
   H     79.47000000    50.79000000    32.93000000
   H     79.59000000    51.55000000    31.31000000
   N     81.48000000    49.40000000    32.15000000
   C     81.93000000    50.21000000    33.27000000
   C     81.36000000    49.74000000    34.59000000
   O     81.71000000    50.31000000    35.62000000
   C     83.45000000    50.25000000    33.31000000
   C     84.13000000    50.78000000    32.06000000
   N     85.20000000    50.13000000    31.60000000
   O     83.61000000    51.65000000    31.36000000
   H     82.13000000    48.68000000    31.85000000
   H     81.58000000    51.25000000    33.27000000
   H     83.85000000    49.27000000    33.57000000
   H     83.69000000    50.98000000    34.09000000
   H     85.65000000    49.36000000    32.08000000
   H     85.68000000    50.58000000    30.83000000
   N     80.63000000    48.62000000    34.63000000
   C     80.33000000    47.95000000    35.88000000
   C     79.23000000    48.68000000    36.64000000
   O     79.01000000    48.45000000    37.83000000
   H     80.24000000    48.17000000    33.82000000
   H     81.21000000    47.95000000    36.52000000
   H     80.13000000    46.89000000    35.70000000
   N     78.42000000    49.53000000    36.00000000
   C     77.59000000    50.51000000    36.66000000
   C     76.19000000    49.97000000    36.91000000
   O     75.22000000    50.05000000    36.16000000
   C     77.55000000    51.86000000    35.95000000
   C     76.60000000    52.84000000    36.62000000
   O     78.77000000    52.54000000    35.77000000
   H     78.48000000    49.56000000    34.99000000
   H     77.95000000    50.72000000    37.66000000
   H     77.12000000    51.78000000    34.95000000
   H     78.51000000    53.39000000    35.41000000
   H     76.72000000    52.82000000    37.71000000
   H     76.85000000    53.87000000    36.37000000
   H     75.59000000    52.70000000    36.24000000
   N     76.02000000    49.55000000    38.17000000
   C     74.82000000    48.86000000    38.60000000
   C     73.56000000    49.70000000    38.56000000
   O     73.66000000    50.91000000    38.78000000
   C     75.00000000    48.08000000    39.90000000
   C     76.26000000    47.22000000    39.99000000
   C     75.16000000    49.05000000    41.07000000
   C     76.45000000    46.04000000    39.05000000
   H     76.86000000    49.49000000    38.72000000
   H     74.78000000    48.02000000    37.90000000
   H     74.14000000    47.41000000    39.94000000
   H     76.32000000    46.76000000    40.97000000
   H     77.09000000    47.92000000    39.92000000
   H     75.70000000    48.51000000    41.85000000
   H     75.71000000    49.94000000    40.75000000
   H     74.19000000    49.39000000    41.44000000
   H     75.45000000    45.72000000    38.74000000
   H     77.02000000    46.34000000    38.17000000
   H     76.90000000    45.21000000    39.60000000
   N     72.40000000    49.09000000    38.32000000
   C     71.13000000    49.66000000    38.75000000
   C     70.09000000    48.57000000    38.97000000
   O     70.11000000    47.44000000    38.50000000
   C     70.52000000    50.64000000    37.75000000
   C     70.43000000    50.17000000    36.31000000
   O     71.31000000    50.48000000    35.48000000
   O     69.43000000    49.49000000    35.98000000
   H     72.49000000    48.20000000    37.85000000
   H     71.32000000    50.11000000    39.72000000
   H     71.10000000    51.56000000    37.89000000
   H     69.52000000    50.88000000    38.10000000
   N     69.15000000    48.88000000    39.86000000
   C     68.12000000    48.00000000    40.37000000
   C     68.75000000    46.72000000    40.91000000
   O     69.73000000    46.91000000    41.63000000
   C     67.22000000    48.69000000    41.41000000
   C     65.90000000    48.03000000    41.70000000
   C     65.84000000    47.13000000    42.77000000
   C     64.96000000    47.99000000    40.65000000
   C     64.78000000    46.22000000    42.85000000
   C     63.92000000    47.05000000    40.74000000
   C     63.87000000    46.12000000    41.78000000
   H     69.18000000    49.84000000    40.17000000
   H     67.46000000    47.74000000    39.54000000
   H     67.06000000    49.71000000    41.07000000
   H     67.66000000    48.71000000    42.40000000
   H     66.61000000    47.12000000    43.53000000
   H     65.11000000    48.63000000    39.80000000
   H     64.74000000    45.54000000    43.68000000
   H     63.28000000    46.93000000    39.88000000
   H     63.03000000    45.44000000    41.86000000
   N     68.28000000    45.49000000    40.71000000
   C     68.75000000    44.30000000    41.39000000
   C     70.14000000    43.94000000    40.88000000
   O     70.74000000    43.01000000    41.43000000
   C     67.69000000    43.26000000    41.04000000
   C     67.26000000    43.62000000    39.62000000
   C     67.36000000    45.14000000    39.65000000
   H     68.83000000    44.41000000    42.47000000
   H     68.05000000    42.23000000    41.17000000
   H     66.88000000    43.37000000    41.76000000
   H     68.01000000    43.25000000    38.92000000
   H     66.31000000    43.10000000    39.43000000
   H     67.63000000    45.59000000    38.69000000
   H     66.39000000    45.55000000    39.91000000
   N     70.66000000    44.54000000    39.81000000
   C     71.88000000    44.10000000    39.17000000
   C     73.11000000    44.33000000    40.04000000
   O     74.13000000    43.69000000    39.77000000
   C     72.13000000    44.55000000    37.74000000
   C     70.97000000    44.11000000    36.84000000
   C     71.46000000    43.84000000    35.43000000
   O     71.88000000    44.82000000    34.77000000
   O     71.23000000    42.72000000    34.92000000
   H     70.31000000    45.47000000    39.60000000
   H     71.81000000    43.01000000    39.13000000
   H     73.07000000    44.07000000    37.48000000
   H     72.29000000    45.62000000    37.57000000
   H     70.22000000    44.90000000    36.85000000
   H     70.49000000    43.24000000    37.29000000
   N     73.08000000    44.95000000    41.22000000
   C     74.11000000    44.89000000    42.24000000
   H     74.95600000    45.50800000    41.93800000
   H     73.70900000    45.26000000    43.18400000
   H     74.44000000    43.85900000    42.36400000
   H     72.24000000    45.44000000    41.49000000
  Ca     71.05000000    49.12000000    33.35000000
   O     68.80000000    47.58000000    33.45000000
   H     67.99000000    47.71000000    33.95000000
   H     68.72000000    46.71000000    33.07000000
   O     70.21000000    48.40000000    30.91000000
   H     70.09000000    47.47000000    30.72000000
   H     70.03000000    48.84000000    30.07000000
   O     71.99000000    46.32000000    32.61000000
   H     71.85000000    45.67000000    33.30000000
   H     72.84000000    46.10000000    32.24000000
   O     71.11000000    47.28000000    35.41000000
   H     71.30000000    46.38000000    35.13000000
   H     70.90000000    47.21000000    36.34000000
   O     73.54000000    48.60000000    34.80000000
   H     73.71000000    47.87000000    35.39000000
   H     73.81000000    49.38000000    35.30000000

Ca 1.70



