%chk=loop2.cluster177.chk
%nprocshared=48
%mem=10GB
%nosave
#b3lyp/svp scf=(tight,noincore) Test 
#IOP(5/87=12) Density=Current Pop=(MK,readradii) iop(6/33=2) iop(6/42=6)

loop2.cluster177 

   -2  1 
   C     75.97000000   103.28000000    -5.76000000
   C     75.34000000   104.66000000    -5.64000000
   O     75.77000000   105.49000000    -4.84000000
   H     76.93600000   103.27700000    -5.25500000
   H     75.31600000   102.54000000    -5.29800000
   H     76.11000000   103.03400000    -6.81300000
   N     74.30000000   105.00000000    -6.40000000
   C     73.39000000   106.10000000    -6.18000000
   C     72.07000000   105.95000000    -6.93000000
   O     71.00000000   106.14000000    -6.35000000
   C     74.10000000   107.40000000    -6.55000000
   C     73.07000000   108.52000000    -6.57000000
   O     73.00000000   109.11000000    -5.47000000
   O     72.37000000   108.85000000    -7.55000000
   H     74.10000000   104.34000000    -7.15000000
   H     73.17000000   106.11000000    -5.11000000
   H     74.46000000   107.33000000    -7.58000000
   H     74.98000000   107.69000000    -5.98000000
   N     72.15000000   105.57000000    -8.20000000
   C     71.06000000   105.40000000    -9.15000000
   C     69.92000000   104.44000000    -8.83000000
   O     68.79000000   104.73000000    -9.21000000
   C     70.53000000   106.81000000    -9.40000000
   H     73.10000000   105.44000000    -8.53000000
   H     71.50000000   105.05000000   -10.08000000
   H     69.82000000   107.19000000    -8.67000000
   H     71.42000000   107.42000000    -9.51000000
   H     70.10000000   106.71000000   -10.40000000
   N     70.18000000   103.39000000    -8.04000000
   C     69.17000000   102.47000000    -7.56000000
   C     68.12000000   103.20000000    -6.74000000
   O     66.94000000   102.87000000    -6.86000000
   C     68.64000000   101.53000000    -8.63000000
   C     69.65000000   100.73000000    -9.45000000
   O     69.36000000   100.59000000   -10.65000000
   O     70.75000000   100.44000000    -8.92000000
   H     71.12000000   103.36000000    -7.67000000
   H     69.70000000   101.84000000    -6.84000000
   H     67.93000000   102.07000000    -9.26000000
   H     68.12000000   100.71000000    -8.13000000
   N     68.47000000   104.21000000    -5.93000000
   C     67.51000000   105.06000000    -5.26000000
   C     66.78000000   104.47000000    -4.06000000
   O     67.36000000   103.68000000    -3.32000000
   H     69.44000000   104.38000000    -5.73000000
   H     66.75000000   105.23000000    -6.02000000
   H     67.97000000   106.03000000    -5.08000000
   N     65.50000000   104.84000000    -3.98000000
   C     64.63000000   104.25000000    -2.97000000
   C     65.09000000   104.39000000    -1.53000000
   O     64.98000000   103.54000000    -0.64000000
   C     64.19000000   102.82000000    -3.29000000
   C     63.55000000   102.73000000    -4.67000000
   N     63.63000000   101.54000000    -5.26000000
   O     62.94000000   103.61000000    -5.26000000
   H     65.11000000   105.51000000    -4.63000000
   H     63.72000000   104.85000000    -3.03000000
   H     63.41000000   102.55000000    -2.58000000
   H     65.00000000   102.09000000    -3.28000000
   H     64.01000000   100.77000000    -4.73000000
   H     63.31000000   101.43000000    -6.22000000
   N     65.82000000   105.46000000    -1.23000000
   C     66.51000000   105.75000000     0.01000000
   C     67.74000000   104.89000000     0.25000000
   O     68.52000000   105.32000000     1.11000000
   H     65.86000000   106.16000000    -1.96000000
   H     65.75000000   105.59000000     0.77000000
   H     66.80000000   106.80000000     0.03000000
   N     68.19000000   103.92000000    -0.55000000
   C     69.57000000   103.56000000    -0.83000000
   C     69.76000000   102.08000000    -1.11000000
   O     68.91000000   101.45000000    -1.74000000
   C     70.17000000   104.17000000    -2.09000000
   C     69.87000000   105.67000000    -2.09000000
   O     71.54000000   103.97000000    -2.37000000
   H     67.55000000   103.53000000    -1.22000000
   H     70.18000000   103.85000000     0.02000000
   H     69.66000000   103.76000000    -2.96000000
   H     71.67000000   103.51000000    -3.20000000
   H     68.79000000   105.81000000    -2.12000000
   H     70.15000000   106.01000000    -1.09000000
   H     70.32000000   106.06000000    -3.00000000
   N     70.86000000   101.45000000    -0.69000000
   C     71.16000000   100.05000000    -0.93000000
   C     71.19000000    99.64000000    -2.39000000
   O     71.71000000   100.26000000    -3.32000000
   C     72.44000000    99.61000000    -0.21000000
   C     73.71000000   100.38000000    -0.59000000
   C     72.22000000    99.57000000     1.30000000
   C     74.99000000    99.97000000     0.12000000
   H     71.50000000   102.07000000    -0.22000000
   H     70.30000000    99.55000000    -0.49000000
   H     72.66000000    98.57000000    -0.44000000
   H     73.39000000   101.41000000    -0.41000000
   H     73.86000000   100.16000000    -1.65000000
   H     71.39000000    98.92000000     1.60000000
   H     73.08000000    99.13000000     1.81000000
   H     72.08000000   100.59000000     1.66000000
   H     75.85000000   100.56000000    -0.18000000
   H     74.89000000   100.25000000     1.17000000
   H     75.15000000    98.89000000     0.09000000
   N     70.61000000    98.49000000    -2.71000000
   C     70.34000000    98.04000000    -4.06000000
   C     68.95000000    97.45000000    -4.30000000
   O     68.86000000    96.30000000    -4.72000000
   C     71.50000000    97.26000000    -4.68000000
   C     71.55000000    97.48000000    -6.18000000
   O     72.64000000    97.26000000    -6.76000000
   O     70.55000000    97.71000000    -6.89000000
   H     70.23000000    97.88000000    -2.00000000
   H     70.22000000    98.96000000    -4.63000000
   H     71.60000000    96.20000000    -4.43000000
   H     72.39000000    97.73000000    -4.26000000
   N     67.91000000    98.24000000    -4.01000000
   C     66.50000000    97.93000000    -4.08000000
   C     65.65000000    98.73000000    -3.10000000
   O     64.60000000    99.24000000    -3.49000000
   C     66.07000000    98.07000000    -5.54000000
   C     64.84000000    97.29000000    -5.91000000
   C     63.59000000    97.86000000    -6.21000000
   C     64.99000000    95.91000000    -6.08000000
   C     62.55000000    97.01000000    -6.61000000
   C     63.97000000    95.04000000    -6.50000000
   C     62.72000000    95.63000000    -6.74000000
   H     68.17000000    99.22000000    -4.01000000
   H     66.47000000    96.88000000    -3.79000000
   H     66.85000000    97.76000000    -6.23000000
   H     65.95000000    99.13000000    -5.75000000
   H     63.46000000    98.93000000    -6.17000000
   H     65.87000000    95.39000000    -5.74000000
   H     61.60000000    97.47000000    -6.80000000
   H     64.17000000    93.98000000    -6.57000000
   H     61.89000000    94.99000000    -6.99000000
   N     66.15000000    98.97000000    -1.89000000
   C     67.26000000    98.40000000    -1.16000000
   C     67.25000000    96.88000000    -0.99000000
   O     68.14000000    96.13000000    -1.39000000
   C     67.24000000    99.10000000     0.19000000
   C     65.87000000    99.76000000     0.30000000
   C     65.66000000   100.13000000    -1.17000000
   H     68.19000000    98.58000000    -1.70000000
   H     67.41000000    98.41000000     1.02000000
   H     68.10000000    99.77000000     0.20000000
   H     65.12000000    99.09000000     0.72000000
   H     65.92000000   100.71000000     0.83000000
   H     64.63000000   100.34000000    -1.45000000
   H     66.20000000   101.02000000    -1.47000000
   N     66.11000000    96.33000000    -0.55000000
   C     66.11000000    94.97000000    -0.04000000
   C     67.21000000    94.75000000     0.99000000
   O     68.02000000    93.83000000     0.87000000
   C     66.03000000    93.90000000    -1.12000000
   C     65.08000000    94.13000000    -2.30000000
   C     63.64000000    94.09000000    -1.80000000
   O     63.02000000    95.11000000    -1.44000000
   O     63.08000000    92.98000000    -1.69000000
   H     65.27000000    96.87000000    -0.39000000
   H     65.21000000    94.92000000     0.57000000
   H     65.88000000    92.91000000    -0.67000000
   H     67.00000000    93.73000000    -1.58000000
   H     65.08000000    93.30000000    -3.01000000
   H     65.47000000    95.01000000    -2.81000000
   N     67.16000000    95.47000000     2.11000000
   C     68.14000000    95.33000000     3.16000000
   H     69.00000000    95.96300000     2.94000000
   H     67.70100000    95.63200000     4.11100000
   H     68.46100000    94.29000000     3.22200000
   H     66.43000000    96.16000000     2.24000000
  Ca     72.10000000    98.29000000    -9.07400000
   O     70.69000000    98.35000000   -11.34400000
   H     70.20000000    99.11000000   -11.64400000
   H     70.48000000    97.66000000   -11.96400000
   O     71.33000000    95.76000000    -9.44400000
   H     71.27000000    95.28000000   -10.27400000
   H     71.10000000    95.12000000    -8.77400000
   O     74.28000000    96.71000000    -9.31400000
   H     74.19000000    95.82000000    -8.95400000
   H     75.19000000    96.76000000    -9.58400000

Ca 1.70



