%chk=loop1.cluster100.chk
%nprocshared=48
%mem=10GB
%nosave
#b3lyp/svp scf=(tight,noincore) Test 
#IOP(5/87=12) Density=Current Pop=(MK,readradii) iop(6/33=2) iop(6/42=6)

loop1.cluster100 

   0  1 
   C     40.30000000    -0.30000000    37.93000000
   C     40.08000000    -1.80000000    37.80000000
   O     40.62000000    -2.50000000    36.94000000
   H     41.21700000    -0.02200000    37.41100000
   H     39.45700000     0.23100000    37.48800000
   H     40.38500000    -0.03500000    38.98400000
   N     39.25000000    -2.37000000    38.67000000
   C     38.99000000    -3.78000000    38.87000000
   C     37.54000000    -4.20000000    39.01000000
   O     37.12000000    -5.08000000    39.76000000
   C     39.91000000    -4.26000000    39.99000000
   C     39.56000000    -3.77000000    41.38000000
   O     40.01000000    -4.37000000    42.38000000
   O     38.80000000    -2.78000000    41.47000000
   H     38.76000000    -1.74000000    39.30000000
   H     39.34000000    -4.23000000    37.94000000
   H     40.90000000    -3.83000000    39.80000000
   H     40.00000000    -5.35000000    40.01000000
   N     36.71000000    -3.42000000    38.31000000
   C     35.26000000    -3.44000000    38.38000000
   C     34.74000000    -3.25000000    36.96000000
   O     34.76000000    -2.14000000    36.42000000
   C     34.63000000    -2.38000000    39.28000000
   C     34.99000000    -2.64000000    40.74000000
   C     34.50000000    -1.74000000    41.87000000
   C     35.26000000    -1.97000000    43.17000000
   N     36.73000000    -1.87000000    43.06000000
   H     37.14000000    -2.61000000    37.90000000
   H     34.96000000    -4.40000000    38.78000000
   H     33.54000000    -2.43000000    39.27000000
   H     34.87000000    -1.37000000    38.96000000
   H     36.08000000    -2.63000000    40.66000000
   H     34.58000000    -3.62000000    40.96000000
   H     33.46000000    -1.89000000    42.14000000
   H     34.60000000    -0.69000000    41.60000000
   H     34.89000000    -2.90000000    43.61000000
   H     34.83000000    -1.19000000    43.79000000
   H     37.20000000    -1.74000000    43.95000000
   H     37.06000000    -2.68000000    42.57000000
   H     37.00000000    -1.06000000    42.52000000
   N     34.18000000    -4.24000000    36.27000000
   C     34.14000000    -5.67000000    36.55000000
   C     33.35000000    -6.20000000    37.73000000
   O     32.95000000    -5.45000000    38.62000000
   C     35.55000000    -6.25000000    36.54000000
   C     36.49000000    -5.67000000    35.49000000
   O     36.12000000    -5.75000000    34.30000000
   O     37.66000000    -5.37000000    35.80000000
   H     33.69000000    -3.88000000    35.47000000
   H     33.62000000    -6.10000000    35.69000000
   H     35.50000000    -7.31000000    36.29000000
   H     35.92000000    -6.12000000    37.56000000
   N     33.04000000    -7.50000000    37.80000000
   C     33.25000000    -8.60000000    36.87000000
   C     33.73000000    -9.82000000    37.64000000
   O     32.99000000   -10.42000000    38.41000000
   H     32.38000000    -7.76000000    38.51000000
   H     33.88000000    -8.41000000    36.00000000
   H     32.23000000    -8.85000000    36.60000000
   N     34.91000000   -10.38000000    37.35000000
   C     36.01000000    -9.89000000    36.53000000
   C     37.06000000    -9.10000000    37.29000000
   O     37.94000000    -8.52000000    36.66000000
   C     36.71000000   -11.08000000    35.89000000
   C     37.27000000   -12.08000000    36.89000000
   O     36.58000000   -13.06000000    37.21000000
   O     38.44000000   -11.93000000    37.31000000
   H     35.20000000   -11.15000000    37.94000000
   H     35.69000000    -9.25000000    35.71000000
   H     37.55000000   -10.64000000    35.35000000
   H     36.05000000   -11.62000000    35.21000000
   N     36.97000000    -8.98000000    38.62000000
   C     37.79000000    -8.10000000    39.43000000
   C     39.29000000    -8.34000000    39.56000000
   O     39.93000000    -7.70000000    40.39000000
   H     36.26000000    -9.51000000    39.10000000
   H     37.31000000    -8.00000000    40.40000000
   H     37.77000000    -7.12000000    38.97000000
   N     39.88000000    -9.13000000    38.67000000
   C     41.32000000    -9.29000000    38.60000000
   C     41.96000000    -8.12000000    37.87000000
   O     41.54000000    -7.58000000    36.84000000
   C     41.65000000   -10.62000000    37.93000000
   C     43.02000000   -10.76000000    37.29000000
   O     40.75000000   -10.90000000    36.87000000
   H     39.28000000    -9.71000000    38.11000000
   H     41.67000000    -9.28000000    39.63000000
   H     41.48000000   -11.40000000    38.68000000
   H     40.11000000   -11.49000000    37.27000000
   H     43.17000000   -11.80000000    37.01000000
   H     43.14000000   -10.15000000    36.39000000
   H     43.77000000   -10.53000000    38.05000000
   N     43.12000000    -7.70000000    38.40000000
   C     43.95000000    -6.66000000    37.84000000
   C     45.39000000    -7.08000000    37.59000000
   O     46.17000000    -6.99000000    38.53000000
   C     43.85000000    -5.31000000    38.55000000
   C     44.57000000    -4.22000000    37.78000000
   C     44.44000000    -5.45000000    39.95000000
   C     44.08000000    -2.81000000    38.13000000
   H     43.54000000    -8.21000000    39.16000000
   H     43.66000000    -6.41000000    36.82000000
   H     42.79000000    -5.07000000    38.59000000
   H     44.45000000    -4.35000000    36.70000000
   H     45.64000000    -4.32000000    37.92000000
   H     44.30000000    -6.44000000    40.38000000
   H     45.51000000    -5.26000000    39.99000000
   H     43.88000000    -4.75000000    40.59000000
   H     44.14000000    -2.80000000    39.21000000
   H     44.75000000    -2.06000000    37.71000000
   H     43.13000000    -2.53000000    37.67000000
   N     45.72000000    -7.63000000    36.41000000
   C     47.06000000    -7.73000000    35.89000000
   C     47.29000000    -7.14000000    34.51000000
   O     48.41000000    -7.31000000    34.03000000
   C     47.53000000    -9.18000000    36.01000000
   C     46.71000000   -10.10000000    35.12000000
   O     47.27000000    -9.72000000    37.29000000
   H     44.99000000    -7.92000000    35.78000000
   H     47.77000000    -7.16000000    36.49000000
   H     48.58000000    -9.20000000    35.72000000
   H     47.89000000    -9.31000000    37.90000000
   H     45.64000000    -9.97000000    35.29000000
   H     46.84000000    -9.90000000    34.05000000
   H     46.91000000   -11.13000000    35.42000000
   N     46.28000000    -6.48000000    33.94000000
   C     46.34000000    -6.01000000    32.57000000
   C     46.05000000    -7.18000000    31.64000000
   O     46.10000000    -8.37000000    31.93000000
   C     47.58000000    -5.20000000    32.19000000
   C     47.88000000    -4.14000000    33.24000000
   O     47.41000000    -4.73000000    30.87000000
   H     45.40000000    -6.35000000    34.41000000
   H     45.50000000    -5.33000000    32.47000000
   H     48.45000000    -5.84000000    32.08000000
   H     47.97000000    -3.95000000    30.85000000
   H     48.37000000    -4.64000000    34.08000000
   H     48.65000000    -3.46000000    32.87000000
   H     46.98000000    -3.56000000    33.43000000
   N     45.64000000    -6.83000000    30.42000000
   C     45.72000000    -7.60000000    29.19000000
   C     44.55000000    -7.67000000    28.21000000
   O     44.70000000    -8.36000000    27.21000000
   C     46.96000000    -7.21000000    28.39000000
   C     48.23000000    -7.63000000    29.12000000
   C     49.46000000    -7.18000000    28.34000000
   C     50.75000000    -7.80000000    28.88000000
   N     51.87000000    -7.51000000    27.97000000
   H     45.44000000    -5.85000000    30.29000000
   H     45.79000000    -8.64000000    29.48000000
   H     47.03000000    -6.13000000    28.23000000
   H     47.02000000    -7.71000000    27.42000000
   H     48.19000000    -8.72000000    29.23000000
   H     48.33000000    -7.20000000    30.11000000
   H     49.64000000    -6.12000000    28.51000000
   H     49.33000000    -7.34000000    27.27000000
   H     50.73000000    -8.89000000    28.93000000
   H     50.79000000    -7.47000000    29.92000000
   H     52.06000000    -6.57000000    27.66000000
   H     52.75000000    -7.83000000    28.35000000
   H     51.80000000    -8.05000000    27.12000000
   N     43.41000000    -7.00000000    28.41000000
   C     42.93000000    -5.97000000    29.30000000
   C     43.73000000    -4.67000000    29.25000000
   O     44.12000000    -4.04000000    30.23000000
   C     42.60000000    -6.49000000    30.70000000
   C     41.36000000    -5.70000000    31.10000000
   C     40.77000000    -6.18000000    32.42000000
   O     39.56000000    -6.44000000    32.58000000
   O     41.51000000    -6.24000000    33.43000000
   H     42.80000000    -7.16000000    27.62000000
   H     41.97000000    -5.71000000    28.85000000
   H     43.38000000    -6.23000000    31.41000000
   H     42.45000000    -7.57000000    30.64000000
   H     40.63000000    -5.85000000    30.31000000
   H     41.70000000    -4.68000000    31.30000000
   N     44.20000000    -4.36000000    28.04000000
   C     44.68000000    -3.07000000    27.58000000
   H     45.66600000    -3.18900000    27.13200000
   H     43.99000000    -2.66900000    26.83800000
   H     44.74600000    -2.38400000    28.42400000
   H     43.99000000    -5.02000000    27.30000000
  Ca     39.62000000    -6.92900000    35.16000000
   O     37.82000000    -8.38900000    33.60000000
   H     37.30000000    -8.03900000    32.88000000
   H     38.01000000    -9.28900000    33.35000000
   O     40.48000000    -9.29900000    34.38000000
   H     40.56000000    -9.51900000    33.45000000
   H     40.89000000   -10.03900000    34.83000000
   O     40.97000000    -4.92900000    36.21000000
   H     40.77000000    -4.06900000    36.56000000
   H     41.93000000    -4.97900000    36.22000000

Ca 1.70



