%chk=loop2.cluster224.chk
%nprocshared=48
%mem=10GB
%nosave
#b3lyp/svp scf=(tight,noincore) Test 
#IOP(5/87=12) Density=Current Pop=(MK,readradii) iop(6/33=2) iop(6/42=6)

loop2.cluster224 

   -2  1 
   C     53.86000000    47.83000000    17.36000000
   C     54.23000000    48.93000000    16.39000000
   O     54.18000000    48.69000000    15.18000000
   H     52.84900000    47.48300000    17.14600000
   H     54.55900000    47.00000000    17.25300000
   H     53.90400000    48.21400000    18.37900000
   N     54.61000000    50.12000000    16.87000000
   C     55.22000000    51.16000000    16.05000000
   C     54.12000000    52.01000000    15.44000000
   O     53.40000000    52.67000000    16.19000000
   C     56.13000000    51.93000000    16.99000000
   C     57.15000000    52.79000000    16.26000000
   O     57.13000000    52.83000000    15.01000000
   O     58.01000000    53.38000000    16.94000000
   H     54.52000000    50.31000000    17.86000000
   H     55.92000000    50.78000000    15.31000000
   H     56.69000000    51.17000000    17.54000000
   H     55.54000000    52.54000000    17.67000000
   N     53.87000000    51.92000000    14.13000000
   C     52.82000000    52.57000000    13.36000000
   C     51.99000000    51.63000000    12.50000000
   O     52.29000000    50.51000000    12.11000000
   C     53.51000000    53.69000000    12.60000000
   H     54.40000000    51.33000000    13.51000000
   H     52.17000000    53.03000000    14.10000000
   H     52.79000000    54.28000000    12.03000000
   H     54.04000000    54.33000000    13.31000000
   H     54.19000000    53.43000000    11.78000000
   N     50.84000000    52.02000000    11.93000000
   C     50.09000000    53.25000000    12.02000000
   C     49.68000000    53.66000000    13.43000000
   O     49.52000000    52.79000000    14.29000000
   C     48.94000000    53.27000000    11.02000000
   C     48.01000000    52.08000000    11.21000000
   O     48.40000000    50.91000000    11.00000000
   O     46.82000000    52.40000000    11.44000000
   H     50.43000000    51.27000000    11.40000000
   H     50.81000000    54.03000000    11.75000000
   H     49.33000000    53.27000000    10.00000000
   H     48.32000000    54.16000000    11.10000000
   N     49.39000000    54.95000000    13.60000000
   C     48.99000000    55.43000000    14.91000000
   C     50.17000000    55.82000000    15.79000000
   O     51.25000000    56.00000000    15.24000000
   H     49.51000000    55.67000000    12.90000000
   H     48.32000000    54.77000000    15.45000000
   H     48.34000000    56.30000000    14.76000000
   N     50.10000000    56.22000000    17.06000000
   C     48.89000000    56.52000000    17.80000000
   C     48.45000000    55.36000000    18.69000000
   O     47.60000000    55.54000000    19.55000000
   C     49.13000000    57.79000000    18.62000000
   C     49.35000000    59.00000000    17.73000000
   N     50.61000000    59.44000000    17.66000000
   O     48.42000000    59.51000000    17.11000000
   H     50.95000000    56.50000000    17.54000000
   H     48.06000000    56.64000000    17.12000000
   H     49.98000000    57.71000000    19.30000000
   H     48.20000000    58.03000000    19.13000000
   H     51.39000000    59.11000000    18.23000000
   H     50.81000000    60.24000000    17.08000000
   N     49.09000000    54.19000000    18.59000000
   C     48.93000000    53.12000000    19.55000000
   C     47.51000000    52.56000000    19.58000000
   O     46.94000000    52.29000000    20.64000000
   H     49.84000000    54.07000000    17.92000000
   H     49.08000000    53.47000000    20.57000000
   H     49.65000000    52.32000000    19.38000000
   N     47.01000000    52.22000000    18.39000000
   C     45.75000000    51.52000000    18.24000000
   C     45.95000000    50.39000000    17.23000000
   O     46.71000000    50.52000000    16.27000000
   C     44.56000000    52.38000000    17.86000000
   C     44.03000000    53.31000000    18.95000000
   O     44.82000000    53.18000000    16.73000000
   H     47.54000000    52.28000000    17.53000000
   H     45.46000000    51.04000000    19.17000000
   H     43.80000000    51.60000000    17.73000000
   H     44.11000000    52.95000000    16.12000000
   H     43.25000000    53.94000000    18.55000000
   H     43.60000000    52.68000000    19.74000000
   H     44.82000000    53.87000000    19.45000000
   N     45.34000000    49.23000000    17.48000000
   C     45.61000000    47.97000000    16.81000000
   C     44.43000000    47.34000000    16.09000000
   O     43.29000000    47.40000000    16.54000000
   C     46.21000000    46.92000000    17.74000000
   C     47.66000000    47.30000000    18.02000000
   C     45.48000000    46.67000000    19.05000000
   C     48.54000000    46.11000000    18.37000000
   H     44.68000000    49.13000000    18.24000000
   H     46.33000000    48.15000000    16.01000000
   H     46.25000000    46.06000000    17.06000000
   H     47.85000000    47.99000000    18.84000000
   H     48.06000000    47.81000000    17.14000000
   H     45.62000000    47.47000000    19.78000000
   H     44.43000000    46.47000000    18.85000000
   H     45.93000000    45.83000000    19.58000000
   H     48.14000000    45.70000000    19.30000000
   H     48.56000000    45.36000000    17.58000000
   H     49.58000000    46.39000000    18.53000000
   N     44.64000000    46.75000000    14.91000000
   C     43.56000000    46.11000000    14.18000000
   C     44.00000000    44.91000000    13.37000000
   O     45.04000000    44.96000000    12.71000000
   C     42.82000000    47.03000000    13.21000000
   C     43.56000000    48.13000000    12.47000000
   O     43.76000000    49.26000000    12.96000000
   O     43.98000000    47.95000000    11.30000000
   H     45.54000000    46.83000000    14.46000000
   H     42.88000000    45.63000000    14.88000000
   H     42.08000000    47.59000000    13.78000000
   H     42.39000000    46.49000000    12.37000000
   N     43.12000000    43.91000000    13.27000000
   C     43.26000000    42.64000000    12.58000000
   C     44.59000000    42.01000000    12.97000000
   O     44.84000000    41.97000000    14.17000000
   C     42.06000000    41.76000000    12.91000000
   C     42.09000000    40.34000000    12.40000000
   C     42.49000000    39.20000000    13.12000000
   C     42.02000000    40.18000000    11.01000000
   C     42.51000000    37.92000000    12.57000000
   C     42.07000000    38.92000000    10.40000000
   C     42.27000000    37.79000000    11.20000000
   H     42.30000000    44.05000000    13.84000000
   H     43.18000000    42.81000000    11.50000000
   H     41.17000000    42.24000000    12.53000000
   H     42.09000000    41.80000000    14.00000000
   H     42.71000000    39.36000000    14.16000000
   H     41.81000000    41.07000000    10.45000000
   H     42.79000000    37.06000000    13.16000000
   H     41.82000000    38.91000000     9.34000000
   H     42.27000000    36.80000000    10.78000000
   N     45.45000000    41.49000000    12.08000000
   C     46.61000000    40.74000000    12.51000000
   C     47.62000000    41.56000000    13.31000000
   O     48.75000000    41.09000000    13.46000000
   C     47.15000000    40.03000000    11.28000000
   C     45.89000000    39.93000000    10.42000000
   C     45.18000000    41.25000000    10.68000000
   H     46.24000000    39.97000000    13.19000000
   H     47.86000000    40.68000000    10.76000000
   H     47.61000000    39.07000000    11.50000000
   H     46.26000000    39.67000000     9.42000000
   H     45.27000000    39.08000000    10.71000000
   H     45.44000000    42.06000000    10.00000000
   H     44.11000000    41.08000000    10.53000000
   N     47.34000000    42.81000000    13.66000000
   C     48.31000000    43.64000000    14.34000000
   C     48.62000000    43.17000000    15.76000000
   O     49.69000000    43.37000000    16.33000000
   C     47.94000000    45.11000000    14.28000000
   C     48.15000000    45.63000000    12.86000000
   C     47.54000000    46.98000000    12.50000000
   O     46.88000000    47.67000000    13.31000000
   O     47.55000000    47.45000000    11.34000000
   H     46.50000000    43.24000000    13.30000000
   H     49.27000000    43.47000000    13.85000000
   H     48.61000000    45.70000000    14.91000000
   H     46.90000000    45.17000000    14.60000000
   H     47.63000000    44.93000000    12.21000000
   H     49.18000000    45.54000000    12.51000000
   N     47.74000000    42.37000000    16.37000000
   C     48.07000000    41.63000000    17.57000000
   H     48.91300000    42.10700000    18.07000000
   H     47.21000000    41.62000000    18.24000000
   H     48.33700000    40.60700000    17.30500000
   H     46.85000000    42.19000000    15.92000000
  Ca     46.16000000    49.60000000    11.77000000
   O     46.10000000    48.80000000     8.89000000
   H     46.76000000    49.22000000     8.35000000
   H     45.33000000    48.73000000     8.32000000
   O     44.71000000    51.25000000     9.95000000
   H     45.25000000    51.97000000     9.64000000
   H     43.82000000    51.49000000     9.68000000
   O     45.62000000    51.24000000    13.87000000
   H     46.13000000    51.18000000    14.67000000
   H     45.00000000    51.96000000    14.03000000

Ca 1.70



