%chk=loop1.cluster79.chk
%nprocshared=48
%mem=10GB
%nosave
#b3lyp/svp scf=(tight,noincore) Test 
#IOP(5/87=12) Density=Current Pop=(MK,readradii) iop(6/33=2) iop(6/42=6)

loop1.cluster79 

   0  1 
   C     37.44000000    71.70000000   112.62000000
   C     37.22000000    71.33000000   114.08000000
   O     38.00000000    71.65000000   114.97000000
   H     38.49100000    71.56200000   112.36500000
   H     36.82600000    71.06000000   111.98600000
   H     37.16300000    72.74200000   112.46300000
   N     36.06000000    70.74000000   114.37000000
   C     35.68000000    70.15000000   115.64000000
   C     36.43000000    68.90000000   116.09000000
   O     36.35000000    68.51000000   117.25000000
   C     34.17000000    69.93000000   115.68000000
   C     33.32000000    71.15000000   115.38000000
   O     32.58000000    71.07000000   114.37000000
   O     33.24000000    72.17000000   116.10000000
   H     35.36000000    70.70000000   113.64000000
   H     35.85000000    70.88000000   116.43000000
   H     33.87000000    69.62000000   116.68000000
   H     33.93000000    69.15000000   114.96000000
   N     37.20000000    68.27000000   115.21000000
   C     37.47000000    66.85000000   115.30000000
   C     38.91000000    66.52000000   115.65000000
   O     39.85000000    67.02000000   115.03000000
   C     37.05000000    66.17000000   114.00000000
   C     35.55000000    66.07000000   113.74000000
   C     35.26000000    65.26000000   112.48000000
   C     35.67000000    63.79000000   112.48000000
   N     35.21000000    63.06000000   111.30000000
   H     37.22000000    68.63000000   114.26000000
   H     36.74000000    66.52000000   116.05000000
   H     37.47000000    65.16000000   113.98000000
   H     37.57000000    66.64000000   113.17000000
   H     35.18000000    67.09000000   113.62000000
   H     34.99000000    65.64000000   114.57000000
   H     35.74000000    65.77000000   111.64000000
   H     34.19000000    65.19000000   112.29000000
   H     35.38000000    63.26000000   113.39000000
   H     36.76000000    63.84000000   112.42000000
   H     35.77000000    62.23000000   111.24000000
   H     34.29000000    62.63000000   111.30000000
   H     35.23000000    63.59000000   110.44000000
   N     39.31000000    65.70000000   116.63000000
   C     38.40000000    65.04000000   117.54000000
   C     38.96000000    64.83000000   118.94000000
   O     39.29000000    63.70000000   119.27000000
   C     38.08000000    63.74000000   116.79000000
   C     37.20000000    62.75000000   117.55000000
   O     37.36000000    61.53000000   117.36000000
   O     36.22000000    63.18000000   118.20000000
   H     40.28000000    65.44000000   116.51000000
   H     37.45000000    65.55000000   117.72000000
   H     38.99000000    63.22000000   116.51000000
   H     37.59000000    63.90000000   115.83000000
   N     39.22000000    65.89000000   119.71000000
   C     38.89000000    67.27000000   119.40000000
   C     39.42000000    68.38000000   120.29000000
   O     39.65000000    68.11000000   121.47000000
   H     39.79000000    65.69000000   120.52000000
   H     37.82000000    67.49000000   119.41000000
   H     39.20000000    67.47000000   118.38000000
   N     39.67000000    69.59000000   119.79000000
   C     39.35000000    70.19000000   118.51000000
   C     38.95000000    71.63000000   118.80000000
   O     38.89000000    72.04000000   119.96000000
   C     40.59000000    70.14000000   117.62000000
   C     41.87000000    70.52000000   118.35000000
   O     41.84000000    71.59000000   118.99000000
   O     42.88000000    69.79000000   118.30000000
   H     40.01000000    70.20000000   120.51000000
   H     38.43000000    69.75000000   118.12000000
   H     40.47000000    71.00000000   116.95000000
   H     40.76000000    69.28000000   116.98000000
   N     38.53000000    72.38000000   117.77000000
   C     38.32000000    73.79000000   118.05000000
   C     39.49000000    74.70000000   117.71000000
   O     39.44000000    75.93000000   117.72000000
   H     38.46000000    72.07000000   116.82000000
   H     37.96000000    74.02000000   119.05000000
   H     37.49000000    74.10000000   117.41000000
   N     40.63000000    74.06000000   117.45000000
   C     41.92000000    74.66000000   117.19000000
   C     42.62000000    73.89000000   116.08000000
   O     42.53000000    72.67000000   115.91000000
   C     42.74000000    74.86000000   118.46000000
   C     43.55000000    76.14000000   118.24000000
   O     43.62000000    73.78000000   118.68000000
   H     40.61000000    73.05000000   117.36000000
   H     41.71000000    75.67000000   116.83000000
   H     42.03000000    75.08000000   119.25000000
   H     43.04000000    73.04000000   118.86000000
   H     44.05000000    76.47000000   119.15000000
   H     44.30000000    76.00000000   117.47000000
   H     42.93000000    76.96000000   117.88000000
   N     43.25000000    74.69000000   115.23000000
   C     44.11000000    74.22000000   114.16000000
   C     45.31000000    75.13000000   113.88000000
   O     45.24000000    76.35000000   113.85000000
   C     43.29000000    73.93000000   112.91000000
   C     44.06000000    73.46000000   111.67000000
   C     42.36000000    75.09000000   112.57000000
   C     43.10000000    73.01000000   110.58000000
   H     43.12000000    75.70000000   115.21000000
   H     44.58000000    73.28000000   114.44000000
   H     42.54000000    73.18000000   113.16000000
   H     44.68000000    72.61000000   111.95000000
   H     44.70000000    74.31000000   111.42000000
   H     43.02000000    75.94000000   112.40000000
   H     41.73000000    74.96000000   111.69000000
   H     41.73000000    75.40000000   113.39000000
   H     42.63000000    73.85000000   110.06000000
   H     43.72000000    72.60000000   109.78000000
   H     42.33000000    72.33000000   110.93000000
   N     46.48000000    74.50000000   113.77000000
   C     47.73000000    75.16000000   113.46000000
   C     48.60000000    74.42000000   112.45000000
   O     49.60000000    75.03000000   112.09000000
   C     48.49000000    75.67000000   114.68000000
   C     49.26000000    74.56000000   115.39000000
   O     47.67000000    76.13000000   115.73000000
   H     46.44000000    73.52000000   114.01000000
   H     47.47000000    76.03000000   112.85000000
   H     49.26000000    76.39000000   114.40000000
   H     47.26000000    76.94000000   115.41000000
   H     49.41000000    74.80000000   116.44000000
   H     48.62000000    73.68000000   115.30000000
   H     50.26000000    74.47000000   114.96000000
   N     48.16000000    73.24000000   112.00000000
   C     48.87000000    72.30000000   111.16000000
   C     50.24000000    71.93000000   111.71000000
   O     50.87000000    72.70000000   112.43000000
   C     48.92000000    72.94000000   109.77000000
   C     47.54000000    73.03000000   109.11000000
   O     49.55000000    71.98000000   108.96000000
   H     47.45000000    72.86000000   112.61000000
   H     48.32000000    71.37000000   111.05000000
   H     49.47000000    73.88000000   109.78000000
   H     49.37000000    72.02000000   108.02000000
   H     46.75000000    73.18000000   109.85000000
   H     47.65000000    73.90000000   108.46000000
   H     47.40000000    72.08000000   108.61000000
   N     50.63000000    70.69000000   111.38000000
   C     51.82000000    70.07000000   111.93000000
   C     51.66000000    68.95000000   112.95000000
   O     52.59000000    68.82000000   113.75000000
   C     52.68000000    69.58000000   110.77000000
   C     54.11000000    69.39000000   111.26000000
   C     54.78000000    70.62000000   111.87000000
   C     54.87000000    71.90000000   111.03000000
   N     55.63000000    72.98000000   111.68000000
   H     49.97000000    70.07000000   110.94000000
   H     52.32000000    70.82000000   112.55000000
   H     52.70000000    70.34000000   109.99000000
   H     52.40000000    68.56000000   110.49000000
   H     54.61000000    69.08000000   110.34000000
   H     54.29000000    68.56000000   111.94000000
   H     55.77000000    70.39000000   112.26000000
   H     54.29000000    70.82000000   112.82000000
   H     53.90000000    72.35000000   110.84000000
   H     55.35000000    71.69000000   110.08000000
   H     55.60000000    73.78000000   111.06000000
   H     55.26000000    73.23000000   112.58000000
   H     56.62000000    72.82000000   111.82000000
   N     50.74000000    67.99000000   112.92000000
   C     49.59000000    67.68000000   112.08000000
   C     49.71000000    67.67000000   110.57000000
   O     49.19000000    68.56000000   109.89000000
   C     48.33000000    68.39000000   112.57000000
   C     47.04000000    67.61000000   112.31000000
   C     45.86000000    68.49000000   112.69000000
   O     45.41000000    68.34000000   113.84000000
   O     45.38000000    69.28000000   111.84000000
   H     50.99000000    67.26000000   113.57000000
   H     49.45000000    66.64000000   112.37000000
   H     48.30000000    69.39000000   112.13000000
   H     48.52000000    68.60000000   113.62000000
   H     46.93000000    66.79000000   113.02000000
   H     47.14000000    67.35000000   111.26000000
   N     50.41000000    66.67000000   110.03000000
   C     50.46000000    66.56000000   108.59000000
   H     51.40200000    66.97100000   108.22700000
   H     50.38700000    65.51100000   108.30200000
   H     49.63000000    67.11500000   108.15400000
   H     50.66000000    65.88000000   110.62000000
  Ca     44.90000000    68.42000000   116.26600000
   O     45.98000000    69.36000000   118.55600000
   H     45.52000000    69.79000000   119.28600000
   H     46.82000000    69.82000000   118.50600000
   O     46.34000000    70.76000000   115.96600000
   H     46.09000000    71.61000000   116.33600000
   H     47.27000000    70.86000000   115.75600000
   O     42.47000000    67.37000000   115.68600000
   H     41.71000000    67.72000000   115.22600000
   H     42.12000000    66.66000000   116.22600000
   O     44.10000000    66.88000000   118.46600000
   H     43.81000000    67.51000000   119.12600000
   H     44.84000000    66.43000000   118.88600000
   O     47.57000000    67.59000000   116.12600000
   H     48.43000000    67.60000000   115.70600000
   H     47.64000000    66.91000000   116.80600000
   O     45.25000000    65.85000000   115.52600000
   H     44.51000000    65.24000000   115.51600000
   H     45.98000000    65.34000000   115.17600000
   O     43.37000000    70.34000000   115.21600000
   H     43.20000000    70.36000000   114.27600000
   H     43.11000000    71.21000000   115.51600000

Ca 1.70



