%chk=loop3.cluster86.chk
%nprocshared=48
%mem=10GB
%nosave
#b3lyp/svp scf=(tight,noincore) Test 
#IOP(5/87=12) Density=Current Pop=(MK,readradii) iop(6/33=2) iop(6/42=6)

loop3.cluster86 

   0  1 
   C    104.48000000    60.15000000    20.38000000
   C    105.77000000    59.45000000    19.97000000
   O    105.76000000    58.47000000    19.23000000
   H    103.68300000    59.41300000    20.47900000
   H    104.62800000    60.65500000    21.33400000
   H    104.20500000    60.88100000    19.62000000
   N    106.87000000    60.06000000    20.43000000
   C    108.26000000    59.67000000    20.27000000
   C    108.64000000    58.56000000    21.23000000
   O    108.52000000    57.36000000    21.01000000
   C    109.23000000    60.85000000    20.25000000
   C    108.98000000    61.91000000    21.32000000
   O    108.46000000    61.63000000    22.42000000
   O    109.46000000    63.06000000    21.23000000
   H    106.64000000    60.75000000    21.13000000
   H    108.26000000    59.29000000    19.24000000
   H    109.09000000    61.25000000    19.25000000
   H    110.20000000    60.37000000    20.34000000
   N    109.24000000    58.94000000    22.37000000
   C    109.91000000    58.06000000    23.30000000
   C    111.25000000    57.54000000    22.81000000
   O    112.31000000    57.90000000    23.31000000
   C    110.04000000    58.84000000    24.61000000
   C    110.30000000    57.95000000    25.81000000
   C    110.58000000    58.69000000    27.12000000
   C    111.12000000    57.66000000    28.10000000
   N    111.14000000    58.24000000    29.46000000
   H    109.38000000    59.94000000    22.46000000
   H    109.30000000    57.19000000    23.55000000
   H    109.01000000    59.17000000    24.77000000
   H    110.72000000    59.68000000    24.50000000
   H    111.08000000    57.20000000    25.64000000
   H    109.38000000    57.41000000    26.01000000
   H    109.64000000    59.08000000    27.49000000
   H    111.32000000    59.48000000    26.93000000
   H    112.14000000    57.36000000    27.86000000
   H    110.42000000    56.83000000    28.23000000
   H    111.69000000    57.71000000    30.12000000
   H    111.51000000    59.18000000    29.46000000
   H    110.20000000    58.31000000    29.83000000
   N    111.14000000    56.79000000    21.70000000
   C    112.27000000    56.27000000    20.96000000
   C    112.04000000    56.40000000    19.46000000
   O    112.98000000    56.12000000    18.72000000
   C    112.77000000    54.93000000    21.50000000
   C    111.65000000    53.99000000    21.92000000
   O    111.08000000    53.25000000    21.09000000
   O    111.46000000    53.79000000    23.14000000
   H    110.24000000    56.69000000    21.26000000
   H    113.05000000    57.01000000    21.14000000
   H    113.34000000    55.24000000    22.37000000
   H    113.39000000    54.30000000    20.86000000
   N    110.83000000    56.57000000    18.92000000
   C    110.45000000    56.19000000    17.58000000
   C    109.09000000    56.79000000    17.24000000
   O    108.39000000    57.04000000    18.22000000
   H    110.02000000    56.70000000    19.52000000
   H    110.39000000    55.10000000    17.59000000
   H    111.16000000    56.65000000    16.89000000
   N    108.72000000    57.08000000    15.99000000
   C    109.47000000    56.80000000    14.78000000
   C    108.42000000    56.45000000    13.73000000
   O    107.38000000    57.08000000    13.56000000
   C    110.33000000    58.01000000    14.43000000
   C    111.08000000    57.67000000    13.15000000
   N    111.04000000    58.59000000    12.18000000
   O    111.78000000    56.67000000    12.98000000
   H    107.99000000    57.78000000    15.99000000
   H    110.18000000    56.00000000    14.99000000
   H    111.07000000    58.22000000    15.20000000
   H    109.60000000    58.82000000    14.36000000
   H    110.51000000    59.44000000    12.28000000
   H    111.58000000    58.43000000    11.34000000
   N    108.54000000    55.40000000    12.92000000
   C    109.42000000    54.26000000    13.09000000
   C    109.01000000    53.27000000    14.17000000
   O    108.75000000    53.66000000    15.31000000
   H    107.77000000    55.35000000    12.27000000
   H    110.43000000    54.65000000    13.22000000
   H    109.50000000    53.81000000    12.10000000
   N    109.02000000    52.00000000    13.76000000
   C    108.24000000    51.00000000    14.45000000
   C    108.93000000    49.65000000    14.57000000
   O    109.82000000    49.36000000    13.77000000
   C    106.87000000    50.94000000    13.76000000
   C    106.08000000    52.21000000    13.95000000
   C    105.50000000    52.51000000    15.18000000
   C    105.95000000    53.12000000    12.89000000
   C    104.81000000    53.71000000    15.39000000
   C    105.28000000    54.33000000    13.10000000
   C    104.66000000    54.63000000    14.33000000
   O    104.20000000    55.88000000    14.63000000
   H    109.43000000    51.74000000    12.88000000
   H    108.14000000    51.33000000    15.49000000
   H    106.28000000    50.05000000    13.98000000
   H    107.15000000    50.74000000    12.73000000
   H    105.62000000    51.85000000    16.03000000
   H    106.30000000    52.87000000    11.89000000
   H    104.34000000    53.86000000    16.35000000
   H    105.29000000    55.08000000    12.32000000
   H    104.47000000    56.51000000    13.95000000
   N    108.55000000    48.84000000    15.57000000
   C    109.16000000    47.60000000    15.99000000
   C    108.16000000    46.46000000    16.10000000
   O    108.58000000    45.31000000    16.02000000
   C    110.09000000    47.79000000    17.18000000
   C    109.59000000    48.39000000    18.50000000
   C    110.99000000    46.57000000    17.29000000
   C    108.41000000    47.71000000    19.20000000
   H    107.79000000    49.18000000    16.14000000
   H    109.84000000    47.36000000    15.17000000
   H    110.83000000    48.53000000    16.88000000
   H    109.22000000    49.41000000    18.39000000
   H    110.45000000    48.53000000    19.15000000
   H    110.71000000    45.97000000    18.16000000
   H    110.87000000    45.96000000    16.40000000
   H    112.07000000    46.72000000    17.31000000
   H    108.32000000    46.65000000    18.94000000
   H    108.56000000    47.79000000    20.27000000
   H    107.46000000    48.16000000    18.88000000
   N    106.88000000    46.73000000    16.36000000
   C    105.81000000    45.79000000    16.11000000
   C    105.35000000    45.07000000    17.37000000
   O    104.71000000    44.03000000    17.22000000
   C    104.67000000    46.58000000    15.49000000
   O    105.03000000    47.07000000    14.22000000
   H    106.54000000    47.66000000    16.59000000
   H    105.99000000    44.98000000    15.40000000
   H    104.28000000    47.42000000    16.08000000
   H    103.79000000    45.95000000    15.43000000
   H    104.38000000    47.72000000    13.95000000
   N    105.59000000    45.59000000    18.58000000
   C    105.02000000    45.19000000    19.85000000
   C    104.71000000    46.39000000    20.74000000
   O    105.52000000    47.30000000    20.87000000
   C    106.07000000    44.33000000    20.55000000
   H    106.15000000    46.43000000    18.56000000
   H    104.08000000    44.65000000    19.76000000
   H    107.05000000    44.81000000    20.65000000
   H    105.79000000    44.00000000    21.55000000
   H    106.11000000    43.41000000    19.97000000
   N    103.70000000    46.27000000    21.60000000
   C    103.50000000    46.91000000    22.89000000
   C    103.52000000    48.43000000    22.91000000
   O    103.57000000    48.93000000    24.04000000
   C    104.41000000    46.28000000    23.93000000
   H    103.02000000    45.55000000    21.38000000
   H    102.52000000    46.67000000    23.29000000
   H    105.20000000    46.99000000    24.17000000
   H    103.83000000    45.96000000    24.80000000
   H    104.92000000    45.39000000    23.55000000
   N    103.58000000    49.14000000    21.78000000
   C    103.66000000    50.58000000    21.86000000
   C    102.28000000    51.22000000    21.84000000
   O    101.96000000    52.07000000    22.67000000
   C    104.56000000    51.15000000    20.77000000
   C    105.98000000    50.59000000    20.64000000
   C    106.75000000    51.55000000    19.75000000
   O    106.84000000    51.36000000    18.52000000
   O    107.41000000    52.47000000    20.28000000
   H    103.62000000    48.66000000    20.90000000
   H    104.16000000    50.93000000    22.77000000
   H    104.64000000    52.24000000    20.85000000
   H    104.05000000    51.09000000    19.81000000
   H    106.00000000    49.55000000    20.32000000
   H    106.29000000    50.78000000    21.66000000
   N    101.41000000    50.75000000    20.95000000
   C    100.01000000    51.10000000    20.81000000
   H     99.44100000    50.65300000    21.62500000
   H     99.90100000    52.18400000    20.84300000
   H     99.63500000    50.72500000    19.85800000
   H    101.74000000    49.97000000    20.39000000
  Ca    106.62200000    55.84000000    19.86000000
   O    107.04200000    53.92000000    17.94000000
   H    106.93200000    53.07000000    18.36000000
   H    107.19200000    53.72000000    17.01000000
   O    104.07200000    55.08000000    20.30000000
   H    103.42200000    55.16000000    19.60000000
   H    103.60200000    54.65000000    21.01000000
   O    105.61200000    57.15000000    22.01000000
   H    104.99200000    56.51000000    22.38000000
   H    105.77200000    57.76000000    22.73000000
   O    105.23200000    56.49000000    17.36000000
   H    104.77200000    56.37000000    16.53000000
   H    104.73200000    57.17000000    17.81000000
   O    106.83200000    54.22000000    22.20000000
   H    107.34200000    54.53000000    22.95000000
   H    107.42200000    53.61000000    21.75000000
   O    108.86200000    54.48000000    20.12000000
   H    108.44200000    53.62000000    20.03000000
   H    109.69200000    54.30000000    20.57000000

Ca 1.70



