%chk=loop3.cluster76.chk
%nprocshared=48
%mem=10GB
%nosave
#b3lyp/svp scf=(tight,noincore) Test 
#IOP(5/87=12) Density=Current Pop=(MK,readradii) iop(6/33=2) iop(6/42=6)

loop3.cluster76 

   0  1 
   C    121.02000000    46.66000000    10.89000000
   C    121.10000000    48.07000000    11.46000000
   O    120.29000000    48.89000000    11.05000000
   H    120.32500000    46.64700000    10.05000000
   H    122.00700000    46.34900000    10.54800000
   H    120.66900000    45.97500000    11.66200000
   N    122.18000000    48.34000000    12.20000000
   C    122.47000000    49.69000000    12.63000000
   C    123.38000000    50.41000000    11.64000000
   O    123.90000000    49.80000000    10.72000000
   C    123.22000000    49.68000000    13.96000000
   C    124.49000000    48.83000000    13.93000000
   O    124.32000000    47.59000000    13.95000000
   O    125.59000000    49.38000000    13.71000000
   H    122.88000000    47.62000000    12.26000000
   H    121.58000000    50.29000000    12.79000000
   H    122.59000000    49.23000000    14.72000000
   H    123.47000000    50.71000000    14.22000000
   N    123.67000000    51.71000000    11.78000000
   C    124.78000000    52.43000000    11.17000000
   C    124.53000000    52.82000000     9.72000000
   O    125.39000000    53.43000000     9.10000000
   C    125.07000000    53.63000000    12.06000000
   C    125.40000000    53.18000000    13.48000000
   C    125.99000000    54.36000000    14.25000000
   C    127.42000000    54.58000000    13.75000000
   N    128.31000000    55.08000000    14.80000000
   H    123.14000000    52.14000000    12.52000000
   H    125.63000000    51.75000000    11.21000000
   H    124.12000000    54.16000000    12.02000000
   H    125.90000000    54.24000000    11.69000000
   H    126.22000000    52.48000000    13.35000000
   H    124.47000000    52.81000000    13.91000000
   H    126.04000000    54.02000000    15.28000000
   H    125.47000000    55.30000000    14.08000000
   H    127.44000000    55.30000000    12.93000000
   H    127.79000000    53.63000000    13.37000000
   H    127.98000000    55.89000000    15.31000000
   H    128.39000000    54.41000000    15.55000000
   H    129.27000000    55.20000000    14.50000000
   N    123.34000000    52.66000000     9.13000000
   C    122.91000000    53.11000000     7.83000000
   C    121.98000000    54.31000000     7.97000000
   O    120.92000000    54.35000000     7.35000000
   C    122.35000000    52.05000000     6.89000000
   C    121.30000000    51.10000000     7.46000000
   O    120.91000000    50.09000000     6.83000000
   O    120.83000000    51.41000000     8.57000000
   H    122.78000000    51.91000000     9.52000000
   H    123.76000000    53.47000000     7.25000000
   H    123.22000000    51.41000000     6.71000000
   H    122.21000000    52.51000000     5.92000000
   N    122.24000000    55.17000000     8.96000000
   C    121.31000000    56.11000000     9.56000000
   C    120.84000000    55.62000000    10.92000000
   O    121.54000000    54.83000000    11.55000000
   H    123.12000000    55.05000000     9.43000000
   H    120.46000000    56.30000000     8.90000000
   H    121.89000000    57.02000000     9.68000000
   N    119.77000000    56.08000000    11.56000000
   C    118.71000000    57.00000000    11.19000000
   C    117.39000000    56.41000000    11.68000000
   O    117.35000000    55.63000000    12.63000000
   C    119.00000000    58.38000000    11.76000000
   C    120.19000000    59.07000000    11.11000000
   N    121.35000000    58.89000000    11.74000000
   O    120.17000000    59.69000000    10.04000000
   H    119.57000000    55.60000000    12.43000000
   H    118.62000000    57.09000000    10.10000000
   H    119.07000000    58.31000000    12.84000000
   H    118.15000000    59.03000000    11.57000000
   H    121.36000000    58.54000000    12.69000000
   H    122.13000000    59.48000000    11.48000000
   N    116.25000000    56.79000000    11.09000000
   C    115.95000000    57.52000000     9.88000000
   C    116.28000000    56.82000000     8.57000000
   O    116.98000000    55.81000000     8.54000000
   H    115.42000000    56.28000000    11.37000000
   H    116.44000000    58.49000000     9.91000000
   H    114.88000000    57.72000000     9.93000000
   N    115.73000000    57.28000000     7.44000000
   C    115.84000000    56.72000000     6.10000000
   C    116.00000000    57.78000000     5.02000000
   O    115.44000000    58.87000000     5.13000000
   C    114.71000000    55.78000000     5.70000000
   C    113.72000000    55.44000000     6.78000000
   C    113.92000000    54.58000000     7.87000000
   C    112.46000000    56.05000000     6.65000000
   C    112.92000000    54.38000000     8.83000000
   C    111.46000000    55.93000000     7.63000000
   C    111.75000000    55.16000000     8.77000000
   O    110.83000000    55.07000000     9.77000000
   H    115.17000000    58.11000000     7.60000000
   H    116.78000000    56.18000000     6.09000000
   H    115.11000000    54.80000000     5.45000000
   H    114.17000000    56.12000000     4.81000000
   H    114.87000000    54.09000000     8.01000000
   H    112.37000000    56.77000000     5.86000000
   H    113.09000000    53.77000000     9.71000000
   H    110.53000000    56.47000000     7.57000000
   H    110.05000000    55.60000000     9.54000000
   N    116.89000000    57.60000000     4.04000000
   C    117.13000000    58.52000000     2.95000000
   C    117.36000000    57.79000000     1.64000000
   O    117.87000000    58.38000000     0.69000000
   C    118.32000000    59.42000000     3.30000000
   C    118.10000000    60.47000000     4.38000000
   C    119.65000000    58.69000000     3.46000000
   C    118.90000000    61.76000000     4.25000000
   H    117.47000000    56.77000000     4.05000000
   H    116.23000000    59.13000000     2.87000000
   H    118.45000000    60.07000000     2.43000000
   H    118.33000000    60.03000000     5.35000000
   H    117.06000000    60.77000000     4.34000000
   H    119.71000000    58.31000000     4.48000000
   H    119.69000000    57.80000000     2.83000000
   H    120.49000000    59.32000000     3.18000000
   H    118.54000000    62.37000000     3.42000000
   H    118.56000000    62.22000000     5.18000000
   H    119.96000000    61.53000000     4.17000000
   N    116.90000000    56.54000000     1.54000000
   C    117.12000000    55.73000000     0.36000000
   C    118.50000000    55.10000000     0.24000000
   O    118.82000000    54.60000000    -0.83000000
   C    116.06000000    54.64000000     0.17000000
   O    115.47000000    54.26000000     1.39000000
   H    116.50000000    56.06000000     2.33000000
   H    116.98000000    56.38000000    -0.50000000
   H    116.40000000    53.84000000    -0.48000000
   H    115.35000000    55.17000000    -0.46000000
   H    116.15000000    53.95000000     1.98000000
   N    119.33000000    55.11000000     1.29000000
   C    120.70000000    54.62000000     1.29000000
   C    120.91000000    53.12000000     1.29000000
   O    121.94000000    52.60000000     1.72000000
   C    121.51000000    55.40000000     2.32000000
   H    118.93000000    55.35000000     2.19000000
   H    121.04000000    54.80000000     0.27000000
   H    121.25000000    56.46000000     2.34000000
   H    121.13000000    55.09000000     3.29000000
   H    122.57000000    55.28000000     2.13000000
   N    119.86000000    52.44000000     0.83000000
   C    119.65000000    51.01000000     0.89000000
   C    119.41000000    50.41000000     2.27000000
   O    119.69000000    49.25000000     2.56000000
   C    120.62000000    50.33000000    -0.06000000
   H    119.20000000    52.99000000     0.30000000
   H    118.66000000    50.99000000     0.43000000
   H    120.67000000    50.88000000    -1.00000000
   H    121.63000000    50.39000000     0.35000000
   H    120.39000000    49.27000000    -0.22000000
   N    119.09000000    51.30000000     3.22000000
   C    118.71000000    51.06000000     4.60000000
   C    117.31000000    50.54000000     4.86000000
   O    116.90000000    50.16000000     5.96000000
   C    118.97000000    52.33000000     5.41000000
   C    117.92000000    53.44000000     5.35000000
   C    117.87000000    54.12000000     3.99000000
   O    117.25000000    53.55000000     3.06000000
   O    118.28000000    55.29000000     3.85000000
   H    118.92000000    52.23000000     2.89000000
   H    119.48000000    50.39000000     4.97000000
   H    119.99000000    52.70000000     5.30000000
   H    119.03000000    52.00000000     6.45000000
   H    118.24000000    54.19000000     6.07000000
   H    116.92000000    53.03000000     5.51000000
   N    116.56000000    50.54000000     3.75000000
   C    115.22000000    50.00000000     3.67000000
   H    114.55200000    50.74900000     3.24500000
   H    115.22200000    49.11400000     3.03500000
   H    114.87600000    49.73100000     4.66900000
   H    116.88000000    50.96000000     2.89000000
  Ca    118.59000000    51.25000000    10.23000000
   O    120.59000000    52.39000000    11.58000000
   H    120.59000000    52.14000000    12.50000000
   H    120.95000000    53.28000000    11.58000000
   O    116.70000000    51.62000000     8.42000000
   H    116.04000000    52.23000000     8.10000000
   H    116.76000000    50.95000000     7.74000000
   O    116.97000000    52.97000000    11.65000000
   H    116.02000000    52.97000000    11.63000000
   H    117.21000000    53.69000000    12.23000000
   O    118.82000000    53.81000000     8.94000000
   H    119.47000000    54.01000000     8.26000000
   H    118.09000000    54.40000000     8.74000000
   O    118.64000000    49.35000000     8.18000000
   H    118.40000000    48.57000000     7.68000000
   H    119.48000000    49.62000000     7.81000000
   O    116.94000000    49.87000000    11.76000000
   H    116.95000000    48.94000000    11.98000000
   H    116.33000000    50.26000000    12.39000000

Ca 1.70



