%chk=loop2.cluster110.chk
%nprocshared=48
%mem=10GB
%nosave
#b3lyp/svp scf=(tight,noincore) Test 
#IOP(5/87=12) Density=Current Pop=(MK,readradii) iop(6/33=2) iop(6/42=6)

loop2.cluster110 

   -2  1 
   C     48.87000000    75.32000000    25.49000000
   C     48.69000000    73.81000000    25.46000000
   O     47.80000000    73.27000000    26.10000000
   H     49.79300000    75.58600000    24.97400000
   H     48.02600000    75.79700000    24.99200000
   H     48.92200000    75.66000000    26.52400000
   N     49.55000000    73.04000000    24.79000000
   C     49.56000000    71.59000000    24.80000000
   C     49.84000000    70.99000000    26.18000000
   O     49.30000000    69.96000000    26.57000000
   C     50.64000000    71.11000000    23.84000000
   C     50.70000000    69.59000000    23.72000000
   O     49.95000000    68.98000000    22.93000000
   O     51.50000000    68.99000000    24.47000000
   H     50.16000000    73.49000000    24.11000000
   H     48.56000000    71.29000000    24.51000000
   H     51.59000000    71.52000000    24.18000000
   H     50.38000000    71.47000000    22.84000000
   N     50.73000000    71.67000000    26.91000000
   C     51.03000000    71.51000000    28.31000000
   C     49.89000000    71.57000000    29.32000000
   O     49.98000000    70.93000000    30.36000000
   C     51.93000000    70.30000000    28.58000000
   H     51.33000000    72.39000000    26.52000000
   H     51.66000000    72.38000000    28.47000000
   H     52.56000000    70.38000000    29.47000000
   H     51.41000000    69.35000000    28.59000000
   H     52.59000000    70.29000000    27.71000000
   N     48.89000000    72.37000000    28.94000000
   C     47.71000000    72.63000000    29.74000000
   C     46.79000000    71.43000000    29.94000000
   O     46.02000000    71.41000000    30.90000000
   C     48.04000000    73.45000000    30.98000000
   C     48.93000000    74.66000000    30.73000000
   O     50.03000000    74.80000000    31.31000000
   O     48.55000000    75.56000000    29.95000000
   H     49.08000000    72.91000000    28.11000000
   H     47.10000000    73.27000000    29.11000000
   H     48.56000000    72.78000000    31.66000000
   H     47.11000000    73.70000000    31.49000000
   N     46.87000000    70.37000000    29.15000000
   C     45.81000000    69.37000000    29.10000000
   C     44.36000000    69.70000000    28.80000000
   O     44.01000000    70.76000000    28.30000000
   H     47.51000000    70.40000000    28.37000000
   H     45.95000000    68.74000000    29.98000000
   H     46.06000000    68.62000000    28.34000000
   N     43.45000000    68.77000000    29.11000000
   C     42.02000000    68.98000000    28.95000000
   C     41.52000000    68.97000000    27.51000000
   O     40.41000000    69.35000000    27.17000000
   C     41.51000000    70.04000000    29.93000000
   C     41.91000000    69.67000000    31.35000000
   N     42.97000000    70.16000000    31.99000000
   O     41.22000000    68.86000000    31.97000000
   H     43.78000000    67.94000000    29.58000000
   H     41.56000000    68.06000000    29.31000000
   H     40.42000000    70.12000000    29.92000000
   H     41.93000000    71.02000000    29.70000000
   H     43.52000000    70.87000000    31.54000000
   H     42.98000000    69.93000000    32.98000000
   N     42.36000000    68.55000000    26.56000000
   C     42.14000000    68.48000000    25.13000000
   C     42.61000000    69.69000000    24.34000000
   O     43.22000000    69.58000000    23.28000000
   H     43.30000000    68.32000000    26.83000000
   H     41.09000000    68.34000000    24.88000000
   H     42.78000000    67.67000000    24.75000000
   N     42.57000000    70.89000000    24.92000000
   C     43.21000000    72.09000000    24.40000000
   C     42.39000000    73.36000000    24.44000000
   O     41.63000000    73.55000000    25.39000000
   C     44.55000000    72.37000000    25.08000000
   C     45.29000000    71.08000000    25.42000000
   O     45.33000000    73.20000000    24.26000000
   H     42.24000000    70.98000000    25.87000000
   H     43.53000000    71.92000000    23.37000000
   H     44.30000000    72.94000000    25.98000000
   H     45.10000000    74.13000000    24.34000000
   H     44.71000000    70.52000000    26.15000000
   H     45.47000000    70.44000000    24.55000000
   H     46.26000000    71.25000000    25.89000000
   N     42.58000000    74.34000000    23.55000000
   C     42.39000000    75.77000000    23.68000000
   C     43.50000000    76.29000000    24.60000000
   O     44.52000000    75.64000000    24.77000000
   C     42.47000000    76.48000000    22.33000000
   C     43.74000000    76.27000000    21.51000000
   C     41.41000000    75.99000000    21.35000000
   C     44.73000000    77.43000000    21.64000000
   H     43.13000000    74.04000000    22.76000000
   H     41.43000000    75.94000000    24.16000000
   H     42.39000000    77.56000000    22.49000000
   H     43.64000000    76.22000000    20.43000000
   H     44.30000000    75.37000000    21.78000000
   H     41.62000000    76.54000000    20.44000000
   H     41.50000000    74.93000000    21.09000000
   H     40.37000000    76.14000000    21.65000000
   H     44.45000000    78.32000000    21.09000000
   H     44.95000000    77.69000000    22.67000000
   H     45.66000000    77.17000000    21.14000000
   N     43.32000000    77.42000000    25.29000000
   C     44.20000000    77.86000000    26.36000000
   C     43.60000000    77.43000000    27.69000000
   O     43.48000000    78.21000000    28.63000000
   C     44.45000000    79.35000000    26.15000000
   C     45.56000000    79.98000000    26.98000000
   O     45.91000000    79.39000000    28.02000000
   O     45.99000000    81.12000000    26.72000000
   H     42.59000000    78.02000000    24.95000000
   H     45.17000000    77.45000000    26.09000000
   H     43.52000000    79.92000000    26.21000000
   H     44.79000000    79.53000000    25.13000000
   N     43.11000000    76.19000000    27.78000000
   C     42.56000000    75.75000000    29.04000000
   C     41.29000000    76.41000000    29.56000000
   O     41.38000000    76.83000000    30.71000000
   C     42.51000000    74.23000000    29.11000000
   C     42.30000000    73.77000000    30.53000000
   C     41.05000000    73.38000000    31.02000000
   C     43.42000000    73.60000000    31.36000000
   C     40.91000000    72.99000000    32.35000000
   C     43.28000000    73.15000000    32.68000000
   C     42.02000000    72.84000000    33.21000000
   H     43.24000000    75.60000000    26.96000000
   H     43.32000000    75.92000000    29.81000000
   H     43.50000000    73.96000000    28.74000000
   H     41.80000000    73.73000000    28.44000000
   H     40.21000000    73.45000000    30.34000000
   H     44.38000000    73.90000000    30.98000000
   H     39.94000000    72.71000000    32.72000000
   H     44.19000000    72.96000000    33.23000000
   H     41.81000000    72.42000000    34.18000000
   N     40.10000000    76.23000000    28.99000000
   C     39.85000000    75.81000000    27.63000000
   C     39.81000000    76.94000000    26.61000000
   O     39.64000000    76.70000000    25.42000000
   C     38.52000000    75.07000000    27.73000000
   C     37.72000000    75.83000000    28.77000000
   C     38.83000000    76.35000000    29.68000000
   H     40.53000000    75.01000000    27.34000000
   H     38.03000000    74.91000000    26.77000000
   H     38.66000000    74.05000000    28.10000000
   H     37.26000000    76.70000000    28.29000000
   H     37.04000000    75.22000000    29.37000000
   H     38.54000000    77.34000000    30.03000000
   H     38.90000000    75.61000000    30.47000000
   N     39.88000000    78.19000000    27.08000000
   C     39.54000000    79.38000000    26.32000000
   C     40.30000000    79.73000000    25.05000000
   O     41.41000000    79.28000000    24.78000000
   C     39.60000000    80.59000000    27.26000000
   C     40.99000000    80.93000000    27.77000000
   C     40.95000000    81.95000000    28.89000000
   O     41.04000000    83.13000000    28.49000000
   O     40.65000000    81.58000000    30.05000000
   H     40.07000000    78.31000000    28.06000000
   H     38.48000000    79.43000000    26.08000000
   H     38.93000000    80.46000000    28.11000000
   H     39.18000000    81.45000000    26.74000000
   H     41.64000000    81.29000000    26.97000000
   H     41.50000000    80.04000000    28.15000000
   N     39.71000000    80.64000000    24.28000000
   C     40.18000000    81.10000000    22.98000000
   H     41.20500000    80.76400000    22.82500000
   H     39.54200000    80.69100000    22.19700000
   H     40.14600000    82.18900000    22.94500000
   H     38.77000000    80.91000000    24.55000000
  Ca     45.38000000    78.80000000    30.45000000
   O     45.64000000    80.08000000    32.96000000
   H     46.51000000    80.30000000    33.30000000
   H     45.03000000    80.61000000    33.49000000
   O     48.17000000    79.92000000    29.90000000
   H     48.61000000    80.05000000    30.74000000
   H     48.58000000    79.15000000    29.52000000
   O     44.71000000    76.44000000    32.12000000
   H     45.34000000    76.77000000    32.76000000
   H     43.98000000    76.12000000    32.65000000
   O     45.16000000    81.51000000    30.03000000
   H     45.46000000    82.17000000    30.66000000
   H     45.84000000    81.50000000    29.35000000
   O     46.17000000    76.58000000    29.32000000
   H     45.94000000    76.00000000    28.59000000
   H     47.02000000    76.25000000    29.63000000
   O     47.35000000    77.88000000    31.92000000
   H     47.62000000    78.12000000    32.81000000
   H     48.06000000    77.32000000    31.60000000
   O     43.07000000    79.07000000    31.56000000
   H     42.56000000    79.81000000    31.88000000
   H     42.43000000    78.36000000    31.48000000

Ca 1.70



