%chk=loop2.cluster216.chk
%nprocshared=48
%mem=10GB
%nosave
#b3lyp/svp scf=(tight,noincore) Test 
#IOP(5/87=12) Density=Current Pop=(MK,readradii) iop(6/33=2) iop(6/42=6)

loop2.cluster216 

   -2  1 
   C     83.12000000    54.01000000    27.51000000
   C     84.52000000    54.51000000    27.83000000
   O     85.11000000    55.11000000    26.94000000
   H     82.45300000    54.86100000    27.37500000
   H     83.14500000    53.42000000    26.59400000
   H     82.75800000    53.39200000    28.33100000
   N     84.99000000    54.27000000    29.06000000
   C     86.36000000    54.47000000    29.50000000
   C     86.71000000    55.89000000    29.91000000
   O     87.63000000    56.12000000    30.70000000
   C     86.67000000    53.41000000    30.56000000
   C     88.07000000    52.84000000    30.68000000
   O     88.34000000    52.24000000    31.74000000
   O     88.89000000    52.97000000    29.75000000
   H     84.43000000    53.86000000    29.80000000
   H     86.98000000    54.15000000    28.66000000
   H     86.04000000    52.59000000    30.22000000
   H     86.29000000    53.83000000    31.49000000
   N     86.06000000    56.87000000    29.29000000
   C     86.22000000    58.31000000    29.38000000
   C     84.90000000    58.84000000    28.81000000
   O     84.29000000    58.28000000    27.90000000
   C     87.36000000    58.83000000    28.51000000
   H     85.48000000    56.62000000    28.50000000
   H     86.37000000    58.66000000    30.39000000
   H     88.28000000    58.30000000    28.77000000
   H     87.09000000    58.63000000    27.48000000
   H     87.63000000    59.88000000    28.60000000
   N     84.48000000    60.05000000    29.18000000
   C     84.95000000    61.04000000    30.12000000
   C     84.44000000    60.82000000    31.54000000
   O     83.39000000    60.19000000    31.66000000
   C     84.69000000    62.46000000    29.62000000
   C     85.05000000    62.55000000    28.14000000
   O     86.09000000    61.97000000    27.74000000
   O     84.37000000    63.29000000    27.40000000
   H     83.53000000    60.25000000    28.90000000
   H     86.03000000    60.96000000    30.12000000
   H     85.08000000    63.26000000    30.25000000
   H     83.62000000    62.64000000    29.59000000
   N     85.22000000    61.29000000    32.51000000
   C     84.93000000    61.33000000    33.93000000
   C     85.36000000    60.04000000    34.61000000
   O     86.42000000    59.49000000    34.32000000
   H     86.04000000    61.83000000    32.25000000
   H     83.86000000    61.53000000    34.02000000
   H     85.49000000    62.09000000    34.48000000
   N     84.65000000    59.38000000    35.52000000
   C     83.64000000    60.00000000    36.36000000
   C     82.29000000    60.18000000    35.69000000
   O     81.42000000    60.84000000    36.26000000
   C     83.57000000    59.13000000    37.62000000
   C     84.84000000    58.83000000    38.40000000
   N     85.08000000    59.85000000    39.23000000
   O     85.61000000    57.90000000    38.16000000
   H     85.05000000    58.49000000    35.77000000
   H     84.02000000    60.99000000    36.61000000
   H     83.15000000    58.17000000    37.31000000
   H     82.87000000    59.59000000    38.31000000
   H     84.47000000    60.65000000    39.18000000
   H     85.96000000    59.90000000    39.72000000
   N     82.05000000    59.60000000    34.52000000
   C     80.78000000    59.69000000    33.83000000
   C     80.36000000    61.09000000    33.39000000
   O     79.33000000    61.60000000    33.82000000
   H     82.82000000    59.21000000    33.98000000
   H     79.93000000    59.44000000    34.47000000
   H     80.88000000    59.03000000    32.97000000
   N     81.28000000    61.78000000    32.72000000
   C     81.01000000    63.08000000    32.15000000
   C     80.44000000    62.92000000    30.75000000
   O     81.13000000    63.17000000    29.76000000
   C     82.28000000    63.93000000    32.19000000
   C     82.13000000    65.41000000    31.83000000
   O     82.90000000    63.90000000    33.46000000
   H     82.21000000    61.42000000    32.52000000
   H     80.30000000    63.62000000    32.78000000
   H     82.96000000    63.53000000    31.44000000
   H     83.73000000    64.38000000    33.38000000
   H     83.09000000    65.92000000    31.93000000
   H     81.62000000    65.42000000    30.86000000
   H     81.40000000    65.90000000    32.47000000
   N     79.15000000    62.63000000    30.64000000
   C     78.55000000    62.15000000    29.41000000
   C     77.45000000    63.14000000    29.05000000
   O     76.86000000    63.74000000    29.94000000
   C     78.12000000    60.68000000    29.45000000
   C     79.17000000    59.59000000    29.63000000
   C     77.16000000    60.32000000    30.59000000
   C     80.45000000    59.64000000    28.79000000
   H     78.61000000    62.62000000    31.49000000
   H     79.25000000    62.15000000    28.58000000
   H     77.59000000    60.52000000    28.51000000
   H     78.61000000    58.71000000    29.33000000
   H     79.54000000    59.54000000    30.65000000
   H     76.30000000    60.98000000    30.67000000
   H     76.89000000    59.28000000    30.45000000
   H     77.68000000    60.39000000    31.55000000
   H     80.80000000    60.62000000    28.48000000
   H     81.29000000    59.14000000    29.27000000
   H     80.15000000    59.02000000    27.94000000
   N     77.14000000    63.27000000    27.75000000
   C     76.07000000    64.12000000    27.25000000
   C     75.25000000    63.49000000    26.13000000
   O     75.82000000    62.80000000    25.28000000
   C     76.55000000    65.52000000    26.89000000
   C     77.71000000    65.41000000    25.91000000
   O     78.86000000    65.21000000    26.36000000
   O     77.56000000    65.61000000    24.68000000
   H     77.68000000    62.67000000    27.16000000
   H     75.40000000    64.33000000    28.09000000
   H     76.92000000    66.05000000    27.78000000
   H     75.73000000    66.10000000    26.47000000
   N     73.93000000    63.66000000    26.05000000
   C     73.11000000    63.12000000    24.99000000
   C     73.30000000    61.62000000    24.79000000
   O     73.36000000    60.94000000    25.80000000
   C     71.65000000    63.52000000    25.23000000
   C     70.65000000    62.90000000    24.29000000
   C     70.18000000    61.58000000    24.38000000
   C     70.29000000    63.64000000    23.16000000
   C     69.34000000    60.97000000    23.44000000
   C     69.46000000    63.04000000    22.22000000
   C     69.01000000    61.71000000    22.29000000
   H     73.46000000    64.27000000    26.70000000
   H     73.37000000    63.49000000    24.00000000
   H     71.56000000    64.60000000    25.24000000
   H     71.38000000    63.23000000    26.25000000
   H     70.62000000    61.09000000    25.23000000
   H     70.69000000    64.63000000    22.96000000
   H     69.07000000    59.93000000    23.54000000
   H     69.16000000    63.58000000    21.33000000
   H     68.43000000    61.21000000    21.53000000
   N     73.40000000    61.11000000    23.56000000
   C     73.63000000    59.72000000    23.21000000
   C     74.85000000    59.00000000    23.78000000
   O     74.83000000    57.77000000    23.80000000
   C     73.57000000    59.60000000    21.69000000
   C     72.63000000    60.75000000    21.37000000
   C     73.18000000    61.82000000    22.31000000
   H     72.77000000    59.13000000    23.51000000
   H     74.54000000    59.82000000    21.25000000
   H     73.12000000    58.68000000    21.31000000
   H     72.72000000    61.09000000    20.34000000
   H     71.62000000    60.45000000    21.66000000
   H     74.09000000    62.26000000    21.89000000
   H     72.46000000    62.63000000    22.41000000
   N     75.77000000    59.73000000    24.42000000
   C     76.85000000    59.09000000    25.15000000
   C     76.45000000    58.29000000    26.38000000
   O     77.23000000    57.46000000    26.84000000
   C     77.87000000    60.15000000    25.56000000
   C     78.40000000    60.94000000    24.36000000
   C     79.33000000    62.08000000    24.72000000
   O     79.84000000    62.87000000    23.89000000
   O     79.63000000    62.27000000    25.92000000
   H     75.75000000    60.74000000    24.47000000
   H     77.43000000    58.42000000    24.51000000
   H     78.71000000    59.63000000    26.01000000
   H     77.38000000    60.86000000    26.23000000
   H     77.61000000    61.32000000    23.71000000
   H     79.00000000    60.30000000    23.71000000
   N     75.21000000    58.40000000    26.85000000
   C     74.62000000    57.61000000    27.91000000
   H     73.61500000    57.30500000    27.61900000
   H     75.23000000    56.72400000    28.08700000
   H     74.56900000    58.20500000    28.82200000
   H     74.68000000    59.13000000    26.39000000
  Ca     81.20000000    64.67000000    25.07000000
   O     81.90000000    64.82000000    22.43000000
   H     81.68000000    64.21000000    21.72000000
   H     81.69000000    65.68000000    22.08000000
   O     83.07000000    62.85000000    24.94000000
   H     83.42000000    62.79000000    25.83000000
   H     83.55000000    62.20000000    24.44000000
   O     81.54000000    67.17000000    25.83000000
   H     81.01000000    67.95000000    25.98000000
   H     82.25000000    67.24000000    26.48000000
   O     83.74000000    65.55000000    24.57000000
   H     84.54000000    65.12000000    24.88000000
   H     84.03000000    66.10000000    23.84000000
   O     82.00000000    64.13000000    27.44000000
   H     82.86000000    63.73000000    27.49000000
   H     81.57000000    63.90000000    28.26000000
   O     79.71000000    66.38000000    23.67000000
   H     79.82000000    67.32000000    23.80000000
   H     78.85000000    66.18000000    24.05000000

Ca 1.70



