%chk=loop1.cluster77.chk
%nprocshared=48
%mem=10GB
%nosave
#b3lyp/svp scf=(tight,noincore) Test 
#IOP(5/87=12) Density=Current Pop=(MK,readradii) iop(6/33=2) iop(6/42=6)

loop1.cluster77 

   0  1 
   C     44.47000000    41.87000000    16.88000000
   C     44.27000000    41.77000000    15.38000000
   O     45.24000000    41.53000000    14.66000000
   H     45.16000000    42.68400000    17.10000000
   H     43.51200000    42.06500000    17.36300000
   H     44.88200000    40.93300000    17.25500000
   N     43.02000000    41.80000000    14.91000000
   C     42.71000000    41.72000000    13.50000000
   C     41.83000000    42.90000000    13.11000000
   O     40.78000000    42.74000000    12.49000000
   C     42.13000000    40.34000000    13.20000000
   C     40.92000000    39.93000000    14.03000000
   O     40.52000000    40.59000000    15.02000000
   O     40.31000000    38.94000000    13.58000000
   H     42.23000000    41.71000000    15.54000000
   H     43.58000000    41.96000000    12.89000000
   H     42.88000000    39.57000000    13.39000000
   H     41.76000000    40.31000000    12.17000000
   N     42.27000000    44.13000000    13.38000000
   C     41.63000000    45.35000000    12.93000000
   C     42.73000000    46.30000000    12.47000000
   O     43.51000000    46.73000000    13.32000000
   C     40.77000000    45.98000000    14.03000000
   C     39.45000000    45.28000000    14.31000000
   C     38.50000000    45.50000000    13.13000000
   C     37.05000000    45.10000000    13.42000000
   N     36.90000000    43.65000000    13.23000000
   H     43.07000000    44.15000000    14.00000000
   H     41.01000000    45.19000000    12.05000000
   H     40.63000000    47.01000000    13.70000000
   H     41.29000000    46.07000000    14.98000000
   H     38.98000000    45.70000000    15.20000000
   H     39.59000000    44.23000000    14.53000000
   H     38.88000000    44.91000000    12.30000000
   H     38.46000000    46.52000000    12.74000000
   H     36.44000000    45.57000000    12.65000000
   H     36.66000000    45.40000000    14.40000000
   H     35.95000000    43.37000000    13.41000000
   H     37.26000000    43.48000000    12.30000000
   H     37.44000000    43.14000000    13.91000000
   N     43.05000000    46.54000000    11.20000000
   C     42.58000000    46.04000000     9.92000000
   C     41.13000000    46.37000000     9.62000000
   O     40.42000000    46.79000000    10.52000000
   C     42.93000000    44.56000000    10.02000000
   C     44.30000000    44.10000000    10.51000000
   O     44.45000000    42.91000000    10.87000000
   O     45.35000000    44.78000000    10.46000000
   H     43.68000000    47.32000000    11.12000000
   H     43.20000000    46.44000000     9.11000000
   H     42.70000000    44.05000000     9.09000000
   H     42.31000000    44.16000000    10.83000000
   N     40.60000000    46.23000000     8.40000000
   C     41.24000000    45.73000000     7.20000000
   C     40.20000000    45.33000000     6.16000000
   O     39.47000000    46.25000000     5.82000000
   H     39.60000000    46.37000000     8.44000000
   H     41.76000000    44.80000000     7.43000000
   H     41.88000000    46.49000000     6.75000000
   N     40.02000000    44.14000000     5.59000000
   C     40.69000000    42.89000000     5.90000000
   C     40.60000000    42.45000000     7.35000000
   O     39.81000000    43.02000000     8.11000000
   C     40.29000000    41.77000000     4.94000000
   C     40.65000000    41.92000000     3.47000000
   O     40.70000000    40.87000000     2.79000000
   O     41.05000000    42.99000000     2.96000000
   H     39.26000000    44.12000000     4.92000000
   H     41.74000000    43.10000000     5.69000000
   H     39.20000000    41.73000000     5.02000000
   H     40.58000000    40.79000000     5.32000000
   N     41.46000000    41.53000000     7.77000000
   C     41.76000000    41.13000000     9.13000000
   C     42.85000000    40.09000000     9.36000000
   O     42.63000000    38.98000000     8.89000000
   H     42.03000000    41.07000000     7.07000000
   H     40.84000000    40.61000000     9.43000000
   H     42.04000000    41.96000000     9.77000000
   N     43.91000000    40.39000000    10.11000000
   C     45.09000000    39.55000000    10.22000000
   C     45.79000000    39.71000000    11.56000000
   O     46.42000000    40.72000000    11.86000000
   C     46.18000000    39.65000000     9.15000000
   C     45.68000000    39.81000000     7.72000000
   O     46.89000000    38.43000000     9.20000000
   H     43.98000000    41.36000000    10.40000000
   H     44.73000000    38.52000000    10.22000000
   H     46.86000000    40.48000000     9.33000000
   H     47.55000000    38.53000000     8.52000000
   H     46.50000000    40.21000000     7.12000000
   H     45.22000000    38.87000000     7.41000000
   H     44.90000000    40.57000000     7.75000000
   N     46.03000000    38.61000000    12.26000000
   C     46.44000000    38.65000000    13.65000000
   C     47.89000000    38.23000000    13.78000000
   O     48.48000000    37.98000000    14.83000000
   C     45.53000000    37.80000000    14.53000000
   C     45.57000000    38.26000000    15.99000000
   C     45.58000000    36.29000000    14.34000000
   C     44.38000000    37.84000000    16.85000000
   H     45.67000000    37.78000000    11.80000000
   H     46.42000000    39.66000000    14.07000000
   H     44.51000000    38.07000000    14.24000000
   H     45.70000000    39.34000000    16.06000000
   H     46.46000000    37.80000000    16.41000000
   H     45.37000000    35.92000000    13.34000000
   H     46.56000000    35.88000000    14.61000000
   H     44.84000000    35.83000000    15.00000000
   H     43.58000000    38.36000000    16.32000000
   H     44.12000000    36.80000000    16.63000000
   H     44.51000000    38.17000000    17.88000000
   N     48.57000000    38.26000000    12.63000000
   C     49.99000000    37.99000000    12.50000000
   C     50.86000000    39.04000000    13.18000000
   O     51.98000000    38.72000000    13.58000000
   C     50.52000000    37.80000000    11.09000000
   C     50.43000000    39.03000000    10.19000000
   O     49.68000000    36.86000000    10.44000000
   H     48.03000000    38.38000000    11.79000000
   H     50.24000000    37.03000000    12.96000000
   H     51.55000000    37.45000000    11.03000000
   H     50.02000000    36.60000000     9.58000000
   H     49.38000000    39.28000000    10.05000000
   H     50.73000000    39.92000000    10.74000000
   H     50.94000000    38.82000000     9.26000000
   N     50.29000000    40.21000000    13.48000000
   C     51.00000000    41.31000000    14.11000000
   C     52.13000000    41.86000000    13.26000000
   O     51.99000000    41.73000000    12.05000000
   C     51.32000000    41.29000000    15.61000000
   C     50.24000000    40.82000000    16.58000000
   O     51.56000000    42.57000000    16.14000000
   H     49.36000000    40.44000000    13.16000000
   H     50.31000000    42.14000000    14.06000000
   H     52.31000000    40.87000000    15.78000000
   H     50.78000000    43.06000000    16.39000000
   H     49.84000000    39.93000000    16.09000000
   H     50.74000000    40.54000000    17.50000000
   H     49.43000000    41.53000000    16.75000000
   N     53.19000000    42.47000000    13.79000000
   C     54.46000000    42.53000000    13.11000000
   C     54.70000000    43.60000000    12.05000000
   O     55.66000000    43.43000000    11.30000000
   C     55.59000000    42.54000000    14.14000000
   C     55.49000000    41.50000000    15.24000000
   C     56.70000000    41.60000000    16.16000000
   C     56.80000000    40.23000000    16.83000000
   N     57.76000000    40.23000000    17.95000000
   H     53.15000000    42.60000000    14.80000000
   H     54.52000000    41.54000000    12.66000000
   H     55.59000000    43.55000000    14.57000000
   H     56.47000000    42.26000000    13.57000000
   H     55.46000000    40.54000000    14.72000000
   H     54.63000000    41.74000000    15.87000000
   H     56.50000000    42.26000000    17.01000000
   H     57.59000000    41.85000000    15.60000000
   H     57.07000000    39.48000000    16.09000000
   H     55.87000000    39.94000000    17.30000000
   H     58.68000000    40.43000000    17.59000000
   H     57.47000000    40.96000000    18.59000000
   H     57.76000000    39.44000000    18.57000000
   N     53.99000000    44.73000000    11.95000000
   C     53.22000000    45.48000000    12.92000000
   C     53.93000000    45.65000000    14.26000000
   O     53.28000000    45.29000000    15.24000000
   C     51.72000000    45.18000000    13.02000000
   C     50.94000000    45.30000000    11.72000000
   C     49.45000000    45.06000000    11.87000000
   O     48.90000000    44.60000000    12.90000000
   O     48.70000000    45.27000000    10.89000000
   H     54.01000000    45.24000000    11.08000000
   H     53.25000000    46.53000000    12.64000000
   H     51.38000000    45.97000000    13.69000000
   H     51.43000000    44.27000000    13.55000000
   H     51.24000000    44.61000000    10.93000000
   H     51.08000000    46.34000000    11.41000000
   N     55.18000000    46.11000000    14.31000000
   C     55.86000000    46.46000000    15.54000000
   H     56.75800000    47.03200000    15.30800000
   H     55.19800000    47.06100000    16.16300000
   H     56.13700000    45.55100000    16.07400000
   H     55.61000000    46.33000000    13.42000000
  Ca     47.03000000    43.28000000    11.70000000
   O     49.32000000    42.24000000    10.98000000
   H     50.24000000    42.16000000    11.20000000
   H     49.24000000    41.86000000    10.10000000
   O     46.28000000    46.35000000    12.29000000
   H     45.77000000    47.16000000    12.19000000
   H     45.97000000    45.78000000    11.58000000
   O     47.93000000    41.85000000    14.01000000
   H     48.25000000    42.37000000    14.75000000
   H     47.01000000    41.69000000    14.21000000
   O     45.92000000    44.07000000    13.90000000
   H     45.34000000    43.93000000    14.66000000
   H     46.29000000    44.94000000    14.04000000
   O     46.86000000    42.86000000     8.98000000
   H     46.50000000    43.48000000     8.35000000
   H     47.43000000    42.29000000     8.46000000

Ca 1.70



