%chk=loop2.cluster163.chk
%nprocshared=48
%mem=10GB
%nosave
#b3lyp/svp scf=(tight,noincore) Test 
#IOP(5/87=12) Density=Current Pop=(MK,readradii) iop(6/33=2) iop(6/42=6)

loop2.cluster163 

   -2  1 
   C     89.10000000    76.60000000     0.82000000
   C     88.11000000    75.57000000     1.34000000
   O     88.42000000    74.97000000     2.37000000
   H     90.03000000    76.10300000     0.54500000
   H     88.68200000    77.09700000    -0.05500000
   H     89.29900000    77.33800000     1.59700000
   N     86.92000000    75.32000000     0.80000000
   C     86.13000000    76.18000000    -0.06000000
   C     85.71000000    75.54000000    -1.37000000
   O     85.86000000    74.35000000    -1.67000000
   C     84.99000000    76.74000000     0.78000000
   C     84.18000000    75.85000000     1.72000000
   O     84.29000000    74.61000000     1.66000000
   O     83.39000000    76.49000000     2.45000000
   H     86.49000000    74.56000000     1.31000000
   H     86.72000000    77.07000000    -0.24000000
   H     84.34000000    77.34000000     0.14000000
   H     85.49000000    77.47000000     1.42000000
   N     85.19000000    76.44000000    -2.21000000
   C     84.57000000    76.25000000    -3.50000000
   C     83.42000000    75.26000000    -3.61000000
   O     82.85000000    75.07000000    -4.68000000
   C     85.71000000    75.98000000    -4.49000000
   H     85.01000000    77.39000000    -1.90000000
   H     84.10000000    77.17000000    -3.84000000
   H     86.38000000    76.83000000    -4.56000000
   H     86.18000000    75.01000000    -4.32000000
   H     85.27000000    75.84000000    -5.48000000
   N     82.97000000    74.61000000    -2.54000000
   C     81.81000000    73.74000000    -2.42000000
   C     81.32000000    73.58000000    -0.99000000
   O     82.13000000    73.57000000    -0.08000000
   C     82.07000000    72.35000000    -3.01000000
   C     83.30000000    71.61000000    -2.49000000
   O     83.66000000    71.75000000    -1.30000000
   O     83.82000000    70.64000000    -3.06000000
   H     83.52000000    74.68000000    -1.70000000
   H     81.03000000    74.19000000    -3.03000000
   H     82.17000000    72.45000000    -4.09000000
   H     81.23000000    71.72000000    -2.75000000
   N     80.00000000    73.48000000    -0.80000000
   C     79.22000000    73.06000000     0.35000000
   C     77.79000000    72.63000000     0.05000000
   O     77.19000000    73.03000000    -0.94000000
   H     79.39000000    73.62000000    -1.59000000
   H     79.34000000    73.82000000     1.12000000
   H     79.72000000    72.17000000     0.74000000
   N     77.31000000    71.65000000     0.82000000
   C     75.94000000    71.18000000     0.81000000
   C     75.38000000    71.05000000     2.22000000
   O     76.07000000    70.51000000     3.08000000
   C     75.91000000    69.82000000     0.11000000
   C     76.48000000    69.90000000    -1.30000000
   N     75.55000000    70.03000000    -2.25000000
   O     77.69000000    69.90000000    -1.55000000
   H     77.83000000    71.38000000     1.64000000
   H     75.32000000    71.91000000     0.30000000
   H     74.88000000    69.49000000     0.11000000
   H     76.42000000    69.12000000     0.77000000
   H     74.61000000    70.35000000    -2.04000000
   H     75.77000000    70.01000000    -3.23000000
   N     74.18000000    71.57000000     2.52000000
   C     73.44000000    71.52000000     3.76000000
   C     72.93000000    70.17000000     4.26000000
   O     73.16000000    69.21000000     3.53000000
   H     73.58000000    71.87000000     1.76000000
   H     72.60000000    72.21000000     3.75000000
   H     74.10000000    71.78000000     4.59000000
   N     72.44000000    69.91000000     5.47000000
   C     72.27000000    70.81000000     6.60000000
   C     73.49000000    70.87000000     7.51000000
   O     73.62000000    71.83000000     8.26000000
   C     71.08000000    70.40000000     7.46000000
   C     69.77000000    70.51000000     6.69000000
   O     71.21000000    69.08000000     7.94000000
   H     72.23000000    68.95000000     5.69000000
   H     72.12000000    71.81000000     6.19000000
   H     71.13000000    71.06000000     8.33000000
   H     70.51000000    68.87000000     8.56000000
   H     69.61000000    69.74000000     5.93000000
   H     68.92000000    70.28000000     7.33000000
   H     69.72000000    71.46000000     6.17000000
   N     74.41000000    69.91000000     7.55000000
   C     75.65000000    69.74000000     8.27000000
   C     75.48000000    70.23000000     9.70000000
   O     75.72000000    71.41000000     9.97000000
   C     76.84000000    70.50000000     7.70000000
   C     77.01000000    70.10000000     6.24000000
   C     78.17000000    70.32000000     8.43000000
   C     77.20000000    68.65000000     5.81000000
   H     74.15000000    69.07000000     7.05000000
   H     75.91000000    68.68000000     8.38000000
   H     76.59000000    71.56000000     7.74000000
   H     77.79000000    70.73000000     5.80000000
   H     76.11000000    70.46000000     5.74000000
   H     78.20000000    70.66000000     9.46000000
   H     78.27000000    69.25000000     8.63000000
   H     78.99000000    70.73000000     7.84000000
   H     78.14000000    68.21000000     6.17000000
   H     76.35000000    68.06000000     6.13000000
   H     77.20000000    68.47000000     4.74000000
   N     75.08000000    69.52000000    10.76000000
   C     74.81000000    68.10000000    10.78000000
   C     76.12000000    67.35000000    10.99000000
   O     76.14000000    66.16000000    10.67000000
   C     73.97000000    67.80000000    12.02000000
   C     74.39000000    68.37000000    13.37000000
   O     73.86000000    67.85000000    14.37000000
   O     75.14000000    69.36000000    13.48000000
   H     75.01000000    69.96000000    11.67000000
   H     74.35000000    67.72000000     9.86000000
   H     73.83000000    66.73000000    12.16000000
   H     73.07000000    68.37000000    11.83000000
   N     77.14000000    68.00000000    11.55000000
   C     78.46000000    67.44000000    11.77000000
   C     78.38000000    66.35000000    12.83000000
   O     77.42000000    66.25000000    13.60000000
   C     79.40000000    68.61000000    12.04000000
   C     79.26000000    69.28000000    13.39000000
   C     78.36000000    70.33000000    13.58000000
   C     80.03000000    68.84000000    14.48000000
   C     78.28000000    70.95000000    14.83000000
   C     79.89000000    69.35000000    15.77000000
   C     78.95000000    70.38000000    15.92000000
   H     76.97000000    68.93000000    11.89000000
   H     78.65000000    66.93000000    10.82000000
   H     79.34000000    69.31000000    11.21000000
   H     80.46000000    68.39000000    11.92000000
   H     77.85000000    70.70000000    12.70000000
   H     80.72000000    68.04000000    14.27000000
   H     77.51000000    71.67000000    15.04000000
   H     80.39000000    69.00000000    16.66000000
   H     78.78000000    70.82000000    16.89000000
   N     79.28000000    65.37000000    12.82000000
   C     80.62000000    65.33000000    12.26000000
   C     80.72000000    65.18000000    10.74000000
   O     79.70000000    64.97000000    10.09000000
   C     81.36000000    64.16000000    12.89000000
   C     80.19000000    63.27000000    13.28000000
   C     79.09000000    64.24000000    13.71000000
   H     81.07000000    66.30000000    12.44000000
   H     82.03000000    63.58000000    12.25000000
   H     81.85000000    64.44000000    13.82000000
   H     79.86000000    62.54000000    12.54000000
   H     80.50000000    62.74000000    14.18000000
   H     78.13000000    63.75000000    13.55000000
   H     79.31000000    64.51000000    14.74000000
   N     81.91000000    65.17000000    10.14000000
   C     82.18000000    64.95000000     8.74000000
   C     83.38000000    65.72000000     8.21000000
   O     84.09000000    65.32000000     7.28000000
   C     82.39000000    63.48000000     8.40000000
   C     81.12000000    62.65000000     8.60000000
   C     81.18000000    61.18000000     8.22000000
   O     82.21000000    60.51000000     8.45000000
   O     80.10000000    60.62000000     7.93000000
   H     82.73000000    65.27000000    10.73000000
   H     81.30000000    65.24000000     8.16000000
   H     83.20000000    63.10000000     9.01000000
   H     82.56000000    63.40000000     7.32000000
   H     80.37000000    63.19000000     8.02000000
   H     80.89000000    62.70000000     9.66000000
   N     83.70000000    66.91000000     8.71000000
   C     83.17000000    67.76000000     9.76000000
   H     82.15800000    67.44100000    10.00900000
   H     83.80300000    67.68300000    10.64400000
   H     83.14900000    68.79400000     9.41600000
   H     84.45000000    67.37000000     8.22000000
  Ca     84.21000000    72.01000000     1.10000000
   O     85.23000000    69.83000000     2.46000000
   H     85.16000000    68.90000000     2.22000000
   H     85.79000000    69.84000000     3.23000000
   O     82.39000000    69.91000000     0.99000000
   H     82.31000000    68.97000000     1.16000000
   H     81.60000000    70.13000000     0.49000000
   O     86.82000000    72.24000000     0.05000000
   H     87.62000000    71.77000000    -0.22000000
   H     86.82000000    73.03000000    -0.49000000
   O     82.21000000    72.58000000     2.75000000
   H     81.37000000    72.28000000     3.11000000
   H     82.29000000    73.48000000     3.05000000
   O     85.99000000    72.57000000     3.18000000
   H     85.95000000    73.45000000     3.55000000
   H     86.81000000    72.21000000     3.51000000

Ca 1.70



