%chk=loop2.cluster4.chk
%nprocshared=48
%mem=10GB
%nosave
#b3lyp/svp scf=(tight,noincore) Test 
#IOP(5/87=12) Density=Current Pop=(MK,readradii) iop(6/33=2) iop(6/42=6)

loop2.cluster4 

   -2  1 
   C     52.29000000    42.84000000    17.06000000
   C     53.55000000    42.55000000    16.26000000
   O     54.42000000    43.41000000    16.15000000
   H     51.46400000    42.25100000    16.66200000
   H     52.45300000    42.57600000    18.10500000
   H     52.04800000    43.90000000    16.98600000
   N     53.63000000    41.35000000    15.67000000
   C     54.80000000    40.82000000    14.99000000
   C     54.72000000    40.98000000    13.48000000
   O     53.64000000    40.83000000    12.91000000
   C     54.80000000    39.36000000    15.41000000
   C     55.93000000    38.48000000    14.90000000
   O     56.92000000    39.04000000    14.37000000
   O     55.96000000    37.25000000    15.13000000
   H     52.84000000    40.74000000    15.79000000
   H     55.71000000    41.25000000    15.42000000
   H     53.91000000    38.85000000    15.04000000
   H     54.79000000    39.22000000    16.50000000
   N     55.81000000    41.42000000    12.85000000
   C     55.84000000    42.09000000    11.57000000
   C     56.73000000    41.39000000    10.55000000
   O     56.22000000    41.25000000     9.44000000
   C     56.21000000    43.56000000    11.76000000
   H     56.63000000    41.50000000    13.42000000
   H     54.86000000    42.08000000    11.09000000
   H     56.45000000    43.98000000    10.79000000
   H     55.34000000    44.15000000    12.04000000
   H     57.02000000    43.76000000    12.46000000
   N     57.94000000    40.97000000    10.94000000
   C     58.55000000    39.88000000    10.19000000
   C     57.83000000    38.55000000    10.36000000
   O     57.88000000    37.68000000     9.49000000
   C     59.98000000    39.80000000    10.72000000
   C     60.26000000    39.40000000    12.16000000
   O     59.54000000    38.57000000    12.75000000
   O     61.14000000    39.95000000    12.86000000
   H     58.41000000    41.32000000    11.76000000
   H     58.54000000    40.09000000     9.12000000
   H     60.50000000    40.73000000    10.50000000
   H     60.35000000    39.01000000    10.07000000
   N     56.98000000    38.40000000    11.38000000
   C     56.09000000    37.25000000    11.42000000
   C     56.69000000    35.99000000    12.02000000
   O     56.13000000    34.90000000    11.94000000
   H     56.96000000    39.04000000    12.16000000
   H     55.59000000    37.08000000    10.47000000
   H     55.24000000    37.42000000    12.09000000
   N     57.86000000    36.11000000    12.66000000
   C     58.64000000    34.94000000    13.02000000
   C     58.15000000    34.24000000    14.28000000
   O     58.69000000    33.25000000    14.76000000
   C     60.11000000    35.30000000    13.15000000
   C     60.36000000    35.95000000    14.50000000
   N     61.52000000    35.76000000    15.14000000
   O     59.58000000    36.71000000    15.08000000
   H     58.27000000    37.00000000    12.90000000
   H     58.57000000    34.25000000    12.18000000
   H     60.34000000    36.04000000    12.38000000
   H     60.66000000    34.35000000    13.18000000
   H     62.30000000    35.31000000    14.68000000
   H     61.60000000    36.34000000    15.96000000
   N     57.04000000    34.68000000    14.89000000
   C     56.51000000    34.26000000    16.17000000
   C     57.18000000    34.70000000    17.46000000
   O     57.20000000    33.93000000    18.42000000
   H     56.75000000    35.58000000    14.56000000
   H     56.54000000    33.17000000    16.20000000
   H     55.49000000    34.59000000    16.39000000
   N     57.83000000    35.86000000    17.48000000
   C     58.33000000    36.49000000    18.69000000
   C     58.36000000    38.01000000    18.65000000
   O     58.37000000    38.55000000    17.55000000
   C     59.76000000    36.05000000    18.99000000
   C     59.83000000    34.62000000    19.53000000
   O     60.60000000    36.25000000    17.88000000
   H     57.70000000    36.44000000    16.67000000
   H     57.73000000    36.18000000    19.54000000
   H     60.18000000    36.62000000    19.83000000
   H     60.91000000    35.37000000    17.66000000
   H     58.98000000    34.49000000    20.20000000
   H     59.89000000    33.96000000    18.66000000
   H     60.76000000    34.48000000    20.07000000
   N     58.38000000    38.68000000    19.81000000
   C     58.33000000    40.12000000    19.91000000
   C     59.78000000    40.53000000    20.13000000
   O     60.40000000    40.06000000    21.09000000
   C     57.44000000    40.49000000    21.10000000
   C     56.00000000    40.04000000    20.88000000
   C     57.49000000    41.98000000    21.43000000
   C     55.03000000    40.33000000    22.02000000
   H     58.59000000    38.13000000    20.63000000
   H     57.91000000    40.47000000    18.96000000
   H     57.79000000    40.01000000    22.01000000
   H     55.93000000    38.96000000    20.77000000
   H     55.64000000    40.48000000    19.96000000
   H     57.41000000    42.50000000    20.47000000
   H     56.78000000    42.36000000    22.17000000
   H     58.44000000    42.24000000    21.89000000
   H     54.12000000    39.78000000    21.78000000
   H     55.42000000    39.95000000    22.96000000
   H     54.78000000    41.39000000    22.03000000
   N     60.22000000    41.50000000    19.34000000
   C     61.56000000    42.05000000    19.36000000
   C     61.53000000    43.56000000    19.57000000
   O     60.51000000    44.20000000    19.35000000
   C     62.35000000    41.76000000    18.09000000
   C     61.60000000    41.99000000    16.79000000
   O     61.93000000    42.93000000    16.04000000
   O     60.84000000    41.11000000    16.32000000
   H     59.60000000    41.80000000    18.61000000
   H     62.06000000    41.63000000    20.23000000
   H     62.75000000    40.75000000    18.05000000
   H     63.31000000    42.28000000    18.02000000
   N     62.61000000    44.22000000    20.00000000
   C     62.57000000    45.60000000    20.45000000
   C     62.17000000    46.58000000    19.37000000
   O     61.53000000    47.57000000    19.72000000
   C     63.76000000    45.96000000    21.34000000
   C     63.74000000    47.32000000    21.99000000
   C     64.62000000    48.33000000    21.57000000
   C     62.80000000    47.64000000    22.98000000
   C     64.56000000    49.61000000    22.13000000
   C     62.68000000    48.91000000    23.54000000
   C     63.63000000    49.86000000    23.15000000
   H     63.47000000    43.69000000    19.91000000
   H     61.78000000    45.71000000    21.20000000
   H     64.64000000    45.93000000    20.70000000
   H     63.92000000    45.25000000    22.15000000
   H     65.34000000    48.23000000    20.77000000
   H     62.12000000    46.84000000    23.23000000
   H     65.19000000    50.38000000    21.72000000
   H     61.92000000    49.14000000    24.27000000
   H     63.47000000    50.86000000    23.53000000
   N     62.53000000    46.35000000    18.10000000
   C     62.10000000    47.27000000    17.07000000
   C     60.69000000    47.23000000    16.51000000
   O     60.16000000    48.20000000    15.96000000
   C     63.15000000    47.05000000    15.98000000
   C     64.37000000    46.43000000    16.66000000
   C     63.63000000    45.53000000    17.64000000
   H     62.27000000    48.26000000    17.48000000
   H     62.75000000    46.34000000    15.26000000
   H     63.41000000    48.00000000    15.51000000
   H     65.04000000    45.87000000    15.99000000
   H     64.94000000    47.15000000    17.26000000
   H     63.20000000    44.68000000    17.10000000
   H     64.34000000    45.40000000    18.46000000
   N     59.95000000    46.15000000    16.78000000
   C     58.51000000    46.01000000    16.72000000
   C     57.87000000    46.56000000    17.99000000
   O     56.79000000    47.14000000    17.88000000
   C     58.15000000    44.55000000    16.46000000
   C     58.56000000    43.94000000    15.12000000
   C     58.35000000    42.43000000    15.04000000
   O     58.58000000    41.96000000    13.91000000
   O     57.97000000    41.69000000    15.97000000
   H     60.53000000    45.38000000    17.10000000
   H     58.19000000    46.55000000    15.83000000
   H     57.07000000    44.47000000    16.37000000
   H     58.56000000    43.86000000    17.20000000
   H     59.61000000    44.22000000    15.04000000
   H     57.97000000    44.33000000    14.29000000
   N     58.35000000    46.29000000    19.21000000
   C     57.90000000    46.91000000    20.44000000
   H     56.87600000    46.60000000    20.64900000
   H     58.54700000    46.60200000    21.26100000
   H     57.93700000    47.99400000    20.33500000
   H     59.09000000    45.61000000    19.23000000
  Ca     59.20000000    39.56000000    15.20000000
   O     61.49000000    38.39000000    16.14000000
   H     62.40000000    38.24000000    15.87000000
   H     61.51000000    38.30000000    17.09000000

Ca 1.70



