%chk=loop4.cluster77.chk
%nprocshared=48
%mem=10GB
%nosave
#b3lyp/svp scf=(tight,noincore) Test 
#IOP(5/87=12) Density=Current Pop=(MK,readradii) iop(6/33=2) iop(6/42=6)

loop4.cluster77 

   -3  1 
   C     74.83000000    47.68000000    50.75000000
   C     75.16000000    46.23000000    51.07000000
   O     76.27000000    45.73000000    50.91000000
   H     73.91000000    47.96400000    51.26100000
   H     75.64500000    48.32100000    51.08600000
   H     74.69700000    47.79400000    49.67400000
   N     74.22000000    45.37000000    51.49000000
   C     74.27000000    43.98000000    51.90000000
   C     75.22000000    43.50000000    52.98000000
   O     75.25000000    42.32000000    53.32000000
   C     74.20000000    43.04000000    50.70000000
   C     73.17000000    43.61000000    49.74000000
   O     73.52000000    44.21000000    48.70000000
   O     71.94000000    43.59000000    49.96000000
   H     73.28000000    45.74000000    51.48000000
   H     73.32000000    43.79000000    52.40000000
   H     73.86000000    42.03000000    50.92000000
   H     75.14000000    43.02000000    50.13000000
   N     76.02000000    44.42000000    53.54000000
   C     77.05000000    44.16000000    54.52000000
   C     76.51000000    43.34000000    55.68000000
   O     75.46000000    43.67000000    56.23000000
   C     77.70000000    45.44000000    55.03000000
   C     78.16000000    46.36000000    53.90000000
   C     78.86000000    45.16000000    55.99000000
   C     78.87000000    47.65000000    54.32000000
   H     75.78000000    45.39000000    53.41000000
   H     77.88000000    43.57000000    54.13000000
   H     76.94000000    45.95000000    55.62000000
   H     77.28000000    46.65000000    53.34000000
   H     78.88000000    45.89000000    53.23000000
   H     79.12000000    46.07000000    56.53000000
   H     78.67000000    44.38000000    56.73000000
   H     79.68000000    44.94000000    55.30000000
   H     79.70000000    47.50000000    55.01000000
   H     79.24000000    48.10000000    53.40000000
   H     78.16000000    48.37000000    54.72000000
   N     77.15000000    42.31000000    56.23000000
   C     78.41000000    41.67000000    55.90000000
   C     78.18000000    40.57000000    54.87000000
   O     78.74000000    40.65000000    53.78000000
   C     79.18000000    41.16000000    57.11000000
   C     78.40000000    40.48000000    58.23000000
   O     77.23000000    40.07000000    58.10000000
   O     79.03000000    40.19000000    59.27000000
   H     76.73000000    41.80000000    57.00000000
   H     79.06000000    42.41000000    55.43000000
   H     79.62000000    42.07000000    57.52000000
   H     79.98000000    40.47000000    56.81000000
   N     77.60000000    39.42000000    55.21000000
   C     77.50000000    38.29000000    54.31000000
   C     78.85000000    37.78000000    53.82000000
   O     79.83000000    37.83000000    54.55000000
   H     77.13000000    39.30000000    56.10000000
   H     76.86000000    38.68000000    53.51000000
   H     76.99000000    37.46000000    54.80000000
   N     78.96000000    37.39000000    52.55000000
   C     80.23000000    37.10000000    51.91000000
   C     80.82000000    38.21000000    51.05000000
   O     81.96000000    37.98000000    50.67000000
   C     80.12000000    35.86000000    51.04000000
   C     79.06000000    35.85000000    49.94000000
   O     78.43000000    36.83000000    49.49000000
   O     78.79000000    34.75000000    49.42000000
   H     78.12000000    37.28000000    52.00000000
   H     80.97000000    36.89000000    52.68000000
   H     80.03000000    34.98000000    51.67000000
   H     81.08000000    35.67000000    50.56000000
   N     80.06000000    39.25000000    50.70000000
   C     80.43000000    40.36000000    49.84000000
   C     80.48000000    40.10000000    48.34000000
   O     81.16000000    40.90000000    47.69000000
   H     79.10000000    39.19000000    51.01000000
   H     81.47000000    40.63000000    50.03000000
   H     79.87000000    41.28000000    50.00000000
   N     79.76000000    39.11000000    47.80000000
   C     79.85000000    38.56000000    46.47000000
   C     79.90000000    39.57000000    45.34000000
   O     80.30000000    39.22000000    44.23000000
   C     80.84000000    37.39000000    46.42000000
   C     80.63000000    36.36000000    45.32000000
   C     81.80000000    35.44000000    45.00000000
   N     82.10000000    34.46000000    45.85000000
   O     82.55000000    35.57000000    44.03000000
   H     79.12000000    38.57000000    48.36000000
   H     78.91000000    38.04000000    46.27000000
   H     80.75000000    36.83000000    47.35000000
   H     81.84000000    37.81000000    46.40000000
   H     80.44000000    36.80000000    44.34000000
   H     79.76000000    35.73000000    45.52000000
   H     81.58000000    34.29000000    46.71000000
   H     82.89000000    33.94000000    45.51000000
   N     79.52000000    40.84000000    45.50000000
   C     79.40000000    41.81000000    44.43000000
   C     78.32000000    41.60000000    43.38000000
   O     77.33000000    40.90000000    43.58000000
   C     79.30000000    43.22000000    45.00000000
   C     78.19000000    43.30000000    46.04000000
   C     80.66000000    43.62000000    45.57000000
   H     79.14000000    41.02000000    46.42000000
   H     80.33000000    41.84000000    43.86000000
   H     79.19000000    43.83000000    44.10000000
   H     78.40000000    42.63000000    46.88000000
   H     78.09000000    44.36000000    46.28000000
   H     77.31000000    42.97000000    45.50000000
   H     80.64000000    44.70000000    45.74000000
   H     80.87000000    43.11000000    46.51000000
   H     81.53000000    43.50000000    44.92000000
   N     78.54000000    42.27000000    42.24000000
   C     77.65000000    42.31000000    41.10000000
   C     77.47000000    43.75000000    40.62000000
   O     78.40000000    44.54000000    40.49000000
   C     78.29000000    41.39000000    40.07000000
   C     77.35000000    41.27000000    38.88000000
   N     76.11000000    40.80000000    39.07000000
   O     77.71000000    41.69000000    37.78000000
   H     79.42000000    42.74000000    42.13000000
   H     76.65000000    41.95000000    41.33000000
   H     78.57000000    40.41000000    40.45000000
   H     79.20000000    41.85000000    39.70000000
   H     75.76000000    40.41000000    39.93000000
   H     75.55000000    40.61000000    38.25000000
   N     76.25000000    44.07000000    40.19000000
   C     75.88000000    45.38000000    39.69000000
   C     74.37000000    45.56000000    39.80000000
   O     73.70000000    45.83000000    38.81000000
   C     76.46000000    45.72000000    38.33000000
   C     77.20000000    47.03000000    38.21000000
   C     78.59000000    47.04000000    38.38000000
   C     76.46000000    48.17000000    37.88000000
   C     79.25000000    48.26000000    38.15000000
   C     77.18000000    49.37000000    37.79000000
   C     78.58000000    49.47000000    37.89000000
   O     79.22000000    50.66000000    37.70000000
   H     75.46000000    43.47000000    40.39000000
   H     76.28000000    46.14000000    40.37000000
   H     75.72000000    45.69000000    37.53000000
   H     77.11000000    44.89000000    38.06000000
   H     79.14000000    46.12000000    38.42000000
   H     75.38000000    48.23000000    37.80000000
   H     80.32000000    48.22000000    38.22000000
   H     76.67000000    50.26000000    37.46000000
   H     78.67000000    51.38000000    37.38000000
   N     73.82000000    45.27000000    40.98000000
   C     72.39000000    45.29000000    41.20000000
   C     71.87000000    46.72000000    41.28000000
   O     70.82000000    47.04000000    40.71000000
   C     71.97000000    44.39000000    42.36000000
   C     70.50000000    44.52000000    42.72000000
   C     69.86000000    43.34000000    43.45000000
   O     69.77000000    42.23000000    42.88000000
   O     69.43000000    43.44000000    44.62000000
   H     74.35000000    44.92000000    41.77000000
   H     71.90000000    44.82000000    40.35000000
   H     72.57000000    44.69000000    43.22000000
   H     72.23000000    43.34000000    42.21000000
   H     69.95000000    44.65000000    41.78000000
   H     70.21000000    45.38000000    43.32000000
   N     72.45000000    47.68000000    42.00000000
   C     73.44000000    47.65000000    43.06000000
   C     74.83000000    48.09000000    42.63000000
   O     75.04000000    48.41000000    41.46000000
   C     73.08000000    48.52000000    44.26000000
   C     71.71000000    48.23000000    44.86000000
   C     71.62000000    46.88000000    45.56000000
   O     70.56000000    46.28000000    45.82000000
   O     72.66000000    46.44000000    46.10000000
   H     72.13000000    48.61000000    41.77000000
   H     73.64000000    46.64000000    43.42000000
   H     72.95000000    49.54000000    43.92000000
   H     73.84000000    48.42000000    45.04000000
   H     70.99000000    48.12000000    44.05000000
   H     71.40000000    48.97000000    45.60000000
   N     75.85000000    48.08000000    43.49000000
   C     77.22000000    48.51000000    43.32000000
   H     77.85900000    47.63800000    43.18200000
   H     77.29300000    49.15600000    42.44500000
   H     77.54200000    49.05900000    44.20500000
   H     75.58000000    47.62000000    44.34000000
  Ca     71.19000000    45.02000000    47.90000000
   O     69.13000000    43.64000000    47.15000000
   H     69.26000000    43.54000000    46.21000000
   H     68.65000000    42.85000000    47.41000000
   O     71.77000000    43.05000000    46.14000000
   H     71.64000000    42.16000000    46.47000000
   H     71.34000000    43.05000000    45.28000000

Ca 1.70



