%chk=loop2.cluster28.chk
%nprocshared=48
%mem=10GB
%nosave
#b3lyp/svp scf=(tight,noincore) Test 
#IOP(5/87=12) Density=Current Pop=(MK,readradii) iop(6/33=2) iop(6/42=6)

loop2.cluster28 

   -2  1 
   C     66.84000000    39.99000000   -19.84400000
   C     67.00000000    38.88000000   -20.88400000
   O     67.70000000    37.90000000   -20.63400000
   H     65.79900000    40.04100000   -19.52500000
   H     67.47300000    39.77600000   -18.98300000
   H     67.13200000    40.94400000   -20.28200000
   N     66.32000000    38.89000000   -22.03400000
   C     66.18000000    37.84000000   -23.02400000
   C     67.43000000    37.99000000   -23.87400000
   O     67.42000000    38.79000000   -24.80400000
   C     64.86000000    37.92000000   -23.78400000
   C     64.51000000    36.78000000   -24.72400000
   O     63.50000000    36.93000000   -25.44400000
   O     65.38000000    35.90000000   -24.93400000
   H     65.70000000    39.66000000   -22.20400000
   H     66.17000000    36.93000000   -22.43400000
   H     64.76000000    38.90000000   -24.26400000
   H     64.07000000    37.95000000   -23.02400000
   N     68.47000000    37.23000000   -23.51400000
   C     69.86000000    37.41000000   -23.90400000
   C     70.14000000    36.92000000   -25.31400000
   O     71.27000000    36.96000000   -25.79400000
   C     70.81000000    36.92000000   -22.81400000
   H     68.21000000    36.48000000   -22.89400000
   H     69.98000000    38.49000000   -23.99400000
   H     70.21000000    36.85000000   -21.90400000
   H     71.18000000    35.97000000   -23.17400000
   H     71.51000000    37.75000000   -22.71400000
   N     69.12000000    36.55000000   -26.08400000
   C     69.11000000    36.35000000   -27.52400000
   C     67.85000000    36.93000000   -28.16400000
   O     67.58000000    36.76000000   -29.34400000
   C     69.33000000    34.87000000   -27.83400000
   C     68.35000000    33.86000000   -27.24400000
   O     68.08000000    32.89000000   -27.97400000
   O     67.85000000    34.04000000   -26.11400000
   H     68.23000000    36.44000000   -25.61400000
   H     69.90000000    37.00000000   -27.89400000
   H     70.38000000    34.62000000   -27.72400000
   H     69.17000000    34.88000000   -28.91400000
   N     67.04000000    37.70000000   -27.43400000
   C     65.94000000    38.47000000   -27.96400000
   C     64.75000000    37.63000000   -28.40400000
   O     63.89000000    38.16000000   -29.11400000
   H     67.34000000    37.93000000   -26.49400000
   H     66.37000000    39.00000000   -28.82400000
   H     65.70000000    39.22000000   -27.21400000
   N     64.60000000    36.35000000   -28.05400000
   C     63.81000000    35.37000000   -28.76400000
   C     62.37000000    35.05000000   -28.38400000
   O     61.78000000    34.18000000   -29.02400000
   C     64.67000000    34.12000000   -28.79400000
   C     64.40000000    33.18000000   -27.63400000
   N     63.83000000    32.00000000   -27.91400000
   O     64.50000000    33.46000000   -26.44400000
   H     65.02000000    36.06000000   -27.18400000
   H     63.75000000    35.79000000   -29.76400000
   H     65.71000000    34.46000000   -28.81400000
   H     64.51000000    33.60000000   -29.74400000
   H     63.69000000    31.74000000   -28.87400000
   H     63.47000000    31.40000000   -27.18400000
   N     61.87000000    35.79000000   -27.38400000
   C     60.52000000    36.00000000   -26.92400000
   C     60.12000000    35.09000000   -25.76400000
   O     58.96000000    35.01000000   -25.36400000
   H     62.58000000    36.18000000   -26.78400000
   H     59.70000000    35.90000000   -27.64400000
   H     60.56000000    37.01000000   -26.52400000
   N     61.08000000    34.34000000   -25.22400000
   C     61.01000000    33.44000000   -24.08400000
   C     62.12000000    33.78000000   -23.10400000
   O     63.26000000    34.09000000   -23.45400000
   C     60.99000000    31.96000000   -24.44400000
   C     59.61000000    31.48000000   -24.89400000
   O     61.94000000    31.67000000   -25.44400000
   H     61.99000000    34.60000000   -25.57400000
   H     60.09000000    33.72000000   -23.56400000
   H     61.29000000    31.44000000   -23.53400000
   H     62.84000000    31.76000000   -25.10400000
   H     58.85000000    31.62000000   -24.12400000
   H     59.23000000    32.01000000   -25.76400000
   H     59.76000000    30.45000000   -25.22400000
   N     61.82000000    33.82000000   -21.80400000
   C     62.82000000    33.89000000   -20.76400000
   C     63.28000000    32.47000000   -20.45400000
   O     62.45000000    31.59000000   -20.25400000
   C     62.28000000    34.62000000   -19.53400000
   C     62.06000000    36.10000000   -19.80400000
   C     63.12000000    34.56000000   -18.26400000
   C     60.63000000    36.58000000   -20.08400000
   H     60.87000000    33.96000000   -21.47400000
   H     63.69000000    34.45000000   -21.08400000
   H     61.30000000    34.18000000   -19.34400000
   H     62.66000000    36.37000000   -20.67400000
   H     62.35000000    36.72000000   -18.95400000
   H     63.24000000    33.52000000   -17.95400000
   H     64.12000000    34.91000000   -18.53400000
   H     62.65000000    35.19000000   -17.51400000
   H     60.27000000    36.06000000   -20.97400000
   H     60.08000000    36.39000000   -19.16400000
   H     60.62000000    37.65000000   -20.29400000
   N     64.58000000    32.20000000   -20.38400000
   C     65.09000000    30.96000000   -19.82400000
   C     65.39000000    31.08000000   -18.33400000
   O     65.41000000    32.14000000   -17.71400000
   C     66.38000000    30.62000000   -20.55400000
   C     66.25000000    30.69000000   -22.06400000
   O     65.67000000    29.73000000   -22.61400000
   O     66.82000000    31.59000000   -22.73400000
   H     65.26000000    32.88000000   -20.69400000
   H     64.33000000    30.18000000   -19.95400000
   H     66.73000000    29.63000000   -20.25400000
   H     67.08000000    31.37000000   -20.17400000
   N     65.75000000    29.93000000   -17.76400000
   C     66.13000000    29.86000000   -16.36400000
   C     67.35000000    30.71000000   -16.02400000
   O     67.27000000    31.44000000   -15.03400000
   C     66.31000000    28.45000000   -15.81400000
   C     66.55000000    28.40000000   -14.32400000
   C     67.81000000    28.07000000   -13.82400000
   C     65.54000000    28.67000000   -13.38400000
   C     68.12000000    28.07000000   -12.45400000
   C     65.80000000    28.56000000   -12.01400000
   C     67.08000000    28.27000000   -11.53400000
   H     65.75000000    29.11000000   -18.34400000
   H     65.32000000    30.39000000   -15.88400000
   H     67.09000000    27.86000000   -16.31400000
   H     65.38000000    27.91000000   -15.93400000
   H     68.56000000    27.80000000   -14.55400000
   H     64.56000000    28.97000000   -13.72400000
   H     69.13000000    27.94000000   -12.11400000
   H     64.98000000    28.79000000   -11.35400000
   H     67.28000000    28.39000000   -10.47400000
   N     68.49000000    30.66000000   -16.71400000
   C     69.58000000    31.58000000   -16.47400000
   C     69.25000000    33.06000000   -16.58400000
   O     69.98000000    33.87000000   -16.01400000
   C     70.73000000    31.32000000   -17.44400000
   C     70.33000000    29.93000000   -17.91400000
   C     68.81000000    29.80000000   -17.83400000
   H     69.89000000    31.36000000   -15.45400000
   H     70.81000000    32.05000000   -18.25400000
   H     71.71000000    31.29000000   -16.95400000
   H     70.77000000    29.71000000   -18.88400000
   H     70.82000000    29.22000000   -17.24400000
   H     68.49000000    30.29000000   -18.75400000
   H     68.49000000    28.77000000   -17.73400000
   N     68.18000000    33.32000000   -17.33400000
   C     67.68000000    34.66000000   -17.55400000
   C     66.69000000    35.13000000   -16.49400000
   O     66.63000000    36.31000000   -16.15400000
   C     67.21000000    34.77000000   -19.00400000
   C     68.21000000    34.38000000   -20.08400000
   C     67.49000000    34.28000000   -21.42400000
   O     68.09000000    34.53000000   -22.49400000
   O     66.27000000    34.05000000   -21.50400000
   H     67.63000000    32.64000000   -17.83400000
   H     68.54000000    35.27000000   -17.28400000
   H     66.92000000    35.82000000   -19.04400000
   H     66.27000000    34.22000000   -19.08400000
   H     68.77000000    33.48000000   -19.84400000
   H     68.87000000    35.23000000   -20.26400000
   N     65.95000000    34.21000000   -15.87400000
   C     65.13000000    34.34000000   -14.68400000
   H     64.14900000    33.90200000   -14.87000000
   H     65.60800000    33.82000000   -13.85400000
   H     65.01500000    35.39500000   -14.43500000
   H     66.07000000    33.27000000   -16.22400000
  Ca     66.15000000    33.54000000   -24.26400000
   O     66.70000000    31.48000000   -26.05400000
   H     66.22000000    30.83000000   -26.58400000
   H     67.19000000    31.99000000   -26.69400000
   O     64.60000000    31.32000000   -24.42400000
   H     65.09000000    31.01000000   -25.18400000
   H     64.84000000    30.73000000   -23.72400000

Ca 1.70



