%chk=loop4.cluster56.chk
%nprocshared=48
%mem=10GB
%nosave
#b3lyp/svp scf=(tight,noincore) Test 
#IOP(5/87=12) Density=Current Pop=(MK,readradii) iop(6/33=2) iop(6/42=6)

loop4.cluster56 

   -3  1 
   C     80.54000000    21.55000000    59.18000000
   C     81.64000000    20.71000000    59.82000000
   O     82.83000000    21.03000000    59.77000000
   H     79.68600000    21.60400000    59.85500000
   H     80.91500000    22.55500000    58.98800000
   H     80.23200000    21.09100000    58.24100000
   N     81.24000000    19.59000000    60.40000000
   C     82.09000000    18.61000000    61.05000000
   C     82.82000000    19.20000000    62.24000000
   O     84.03000000    19.04000000    62.45000000
   C     82.97000000    17.95000000    59.99000000
   C     82.25000000    17.43000000    58.75000000
   O     82.87000000    17.00000000    57.75000000
   O     81.01000000    17.39000000    58.64000000
   H     80.26000000    19.42000000    60.60000000
   H     81.40000000    17.85000000    61.43000000
   H     83.54000000    17.12000000    60.41000000
   H     83.68000000    18.64000000    59.53000000
   N     82.14000000    19.95000000    63.10000000
   C     82.83000000    20.50000000    64.25000000
   C     82.01000000    19.98000000    65.42000000
   O     80.80000000    20.20000000    65.55000000
   C     82.73000000    22.02000000    64.36000000
   C     83.43000000    22.79000000    63.25000000
   C     83.20000000    22.52000000    65.73000000
   C     82.81000000    24.15000000    62.92000000
   H     81.17000000    20.21000000    63.02000000
   H     83.86000000    20.18000000    64.38000000
   H     81.67000000    22.24000000    64.21000000
   H     83.27000000    22.28000000    62.30000000
   H     84.50000000    22.81000000    63.44000000
   H     84.19000000    22.19000000    66.03000000
   H     83.09000000    23.60000000    65.77000000
   H     82.54000000    22.20000000    66.53000000
   H     81.72000000    24.17000000    62.80000000
   H     82.86000000    24.79000000    63.80000000
   H     83.36000000    24.60000000    62.10000000
   N     82.61000000    19.24000000    66.35000000
   C     83.99000000    18.90000000    66.66000000
   C     84.56000000    17.77000000    65.83000000
   O     85.79000000    17.72000000    65.72000000
   C     84.09000000    18.53000000    68.14000000
   C     83.71000000    19.77000000    68.94000000
   O     84.62000000    20.54000000    69.34000000
   O     82.52000000    20.09000000    69.13000000
   H     82.00000000    18.83000000    67.04000000
   H     84.60000000    19.80000000    66.60000000
   H     85.15000000    18.42000000    68.38000000
   H     83.39000000    17.71000000    68.26000000
   N     83.67000000    16.92000000    65.30000000
   C     83.99000000    15.76000000    64.48000000
   C     85.08000000    14.85000000    65.00000000
   O     85.27000000    14.57000000    66.18000000
   H     82.71000000    17.17000000    65.46000000
   H     84.30000000    16.12000000    63.50000000
   H     83.15000000    15.07000000    64.38000000
   N     85.87000000    14.35000000    64.04000000
   C     87.14000000    13.72000000    64.30000000
   C     88.29000000    14.71000000    64.28000000
   O     89.43000000    14.32000000    64.50000000
   C     87.40000000    12.61000000    63.29000000
   C     87.33000000    13.02000000    61.82000000
   O     86.98000000    14.17000000    61.50000000
   O     87.48000000    12.14000000    60.94000000
   H     85.63000000    14.47000000    63.06000000
   H     87.09000000    13.24000000    65.28000000
   H     86.71000000    11.79000000    63.51000000
   H     88.43000000    12.28000000    63.41000000
   N     87.99000000    16.01000000    64.15000000
   C     89.03000000    17.00000000    64.00000000
   C     89.98000000    16.79000000    62.83000000
   O     90.94000000    17.55000000    62.77000000
   H     87.04000000    16.32000000    63.97000000
   H     89.66000000    17.00000000    64.89000000
   H     88.55000000    17.98000000    63.88000000
   N     89.66000000    15.95000000    61.85000000
   C     90.45000000    15.64000000    60.67000000
   C     90.76000000    16.75000000    59.68000000
   O     91.75000000    16.79000000    58.96000000
   C     91.71000000    14.94000000    61.18000000
   C     91.46000000    13.64000000    61.94000000
   C     92.61000000    12.72000000    62.32000000
   N     92.37000000    11.48000000    62.74000000
   O     93.76000000    13.15000000    62.24000000
   H     88.85000000    15.37000000    62.03000000
   H     89.92000000    14.90000000    60.08000000
   H     92.46000000    15.53000000    61.71000000
   H     92.23000000    14.67000000    60.25000000
   H     90.61000000    13.05000000    61.60000000
   H     91.01000000    14.03000000    62.86000000
   H     91.45000000    11.14000000    62.95000000
   H     93.14000000    10.82000000    62.75000000
   N     89.93000000    17.80000000    59.60000000
   C     90.08000000    18.86000000    58.63000000
   C     89.85000000    18.44000000    57.19000000
   O     89.54000000    17.28000000    56.91000000
   C     89.06000000    19.95000000    58.94000000
   C     87.64000000    19.51000000    59.29000000
   C     89.69000000    20.66000000    60.14000000
   H     89.15000000    17.71000000    60.23000000
   H     91.10000000    19.25000000    58.63000000
   H     88.90000000    20.69000000    58.15000000
   H     87.67000000    18.95000000    60.23000000
   H     86.94000000    20.32000000    59.48000000
   H     87.22000000    18.83000000    58.56000000
   H     90.67000000    21.08000000    59.94000000
   H     89.07000000    21.50000000    60.45000000
   H     89.75000000    19.96000000    60.97000000
   N     90.04000000    19.37000000    56.25000000
   C     90.25000000    19.28000000    54.81000000
   C     89.93000000    20.68000000    54.32000000
   O     90.38000000    21.71000000    54.84000000
   C     91.70000000    18.90000000    54.52000000
   C     92.05000000    18.64000000    53.06000000
   N     91.48000000    17.56000000    52.54000000
   O     92.92000000    19.30000000    52.50000000
   H     90.29000000    20.26000000    56.63000000
   H     89.52000000    18.55000000    54.46000000
   H     92.03000000    18.04000000    55.10000000
   H     92.27000000    19.80000000    54.78000000
   H     90.76000000    17.05000000    53.03000000
   H     91.91000000    17.15000000    51.72000000
   N     89.14000000    20.73000000    53.24000000
   C     88.54000000    21.91000000    52.67000000
   C     87.20000000    21.53000000    52.06000000
   O     86.96000000    21.69000000    50.86000000
   C     89.53000000    22.44000000    51.64000000
   C     89.18000000    23.79000000    51.08000000
   C     89.31000000    24.95000000    51.86000000
   C     88.66000000    23.89000000    49.78000000
   C     89.16000000    26.23000000    51.32000000
   C     88.47000000    25.15000000    49.21000000
   C     88.77000000    26.30000000    49.97000000
   O     88.62000000    27.54000000    49.42000000
   H     88.98000000    19.85000000    52.78000000
   H     88.29000000    22.69000000    53.38000000
   H     89.69000000    21.68000000    50.87000000
   H     90.44000000    22.64000000    52.21000000
   H     89.70000000    24.87000000    52.86000000
   H     88.39000000    23.07000000    49.14000000
   H     89.35000000    27.15000000    51.86000000
   H     88.05000000    25.29000000    48.23000000
   H     88.31000000    27.48000000    48.52000000
   N     86.25000000    20.99000000    52.83000000
   C     85.01000000    20.47000000    52.29000000
   C     83.83000000    21.43000000    52.29000000
   O     83.10000000    21.56000000    51.30000000
   C     84.66000000    19.17000000    53.00000000
   C     83.42000000    18.44000000    52.48000000
   C     83.13000000    17.19000000    53.30000000
   O     83.42000000    16.05000000    52.86000000
   O     82.73000000    17.31000000    54.47000000
   H     86.41000000    20.89000000    53.82000000
   H     85.13000000    20.15000000    51.25000000
   H     84.45000000    19.46000000    54.03000000
   H     85.44000000    18.42000000    52.88000000
   H     83.56000000    18.19000000    51.43000000
   H     82.54000000    19.08000000    52.61000000
   N     83.54000000    22.31000000    53.25000000
   C     84.05000000    22.46000000    54.60000000
   C     85.27000000    23.35000000    54.75000000
   O     85.72000000    24.01000000    53.82000000
   C     82.91000000    22.94000000    55.51000000
   C     81.58000000    22.25000000    55.26000000
   C     81.69000000    20.75000000    55.47000000
   O     81.19000000    19.96000000    54.64000000
   O     82.28000000    20.27000000    56.46000000
   H     82.92000000    23.06000000    53.00000000
   H     84.38000000    21.46000000    54.86000000
   H     82.71000000    23.96000000    55.19000000
   H     83.22000000    22.85000000    56.55000000
   H     81.20000000    22.56000000    54.29000000
   H     80.83000000    22.70000000    55.92000000
   N     85.81000000    23.53000000    55.96000000
   C     86.88000000    24.44000000    56.32000000
   H     87.73400000    24.27300000    55.66400000
   H     86.53500000    25.46800000    56.21100000
   H     87.17600000    24.26300000    57.35400000
   H     85.43000000    22.96000000    56.71000000
  Ca     80.87000000    17.87000000    56.05000000
   O     80.29000000    15.48000000    55.00000000
   H     79.46000000    15.06000000    54.78000000
   H     80.95000000    14.99000000    54.51000000

Ca 1.70



