%chk=loop4.cluster139.chk
%nprocshared=48
%mem=10GB
%nosave
#b3lyp/svp scf=(tight,noincore) Test 
#IOP(5/87=12) Density=Current Pop=(MK,readradii) iop(6/33=2) iop(6/42=6)

loop4.cluster139 

   -3  1 
   C     82.60000000    48.47000000    38.83000000
   C     82.34000000    47.61000000    40.06000000
   O     81.32000000    47.91000000    40.69000000
   H     83.63600000    48.34800000    38.51400000
   H     81.93600000    48.16100000    38.02300000
   H     82.41600000    49.51700000    39.07200000
   N     83.12000000    46.58000000    40.40000000
   C     82.87000000    45.64000000    41.47000000
   C     83.64000000    46.10000000    42.69000000
   O     84.82000000    46.42000000    42.53000000
   C     83.36000000    44.24000000    41.08000000
   C     82.59000000    43.17000000    41.83000000
   O     82.90000000    42.81000000    42.99000000
   O     81.50000000    42.75000000    41.38000000
   H     83.77000000    46.33000000    39.67000000
   H     81.80000000    45.51000000    41.65000000
   H     84.43000000    44.12000000    41.27000000
   H     83.35000000    44.10000000    40.00000000
   N     82.92000000    46.27000000    43.80000000
   C     83.52000000    46.85000000    44.99000000
   C     84.05000000    45.70000000    45.84000000
   O     84.81000000    45.91000000    46.78000000
   C     82.48000000    47.69000000    45.73000000
   C     81.75000000    48.70000000    44.85000000
   C     82.98000000    48.32000000    47.03000000
   C     82.60000000    49.70000000    44.08000000
   H     81.97000000    45.94000000    43.86000000
   H     84.35000000    47.52000000    44.75000000
   H     81.59000000    47.11000000    45.97000000
   H     81.18000000    49.36000000    45.49000000
   H     81.23000000    48.26000000    43.99000000
   H     83.93000000    48.81000000    46.81000000
   H     82.25000000    49.01000000    47.44000000
   H     83.07000000    47.56000000    47.81000000
   H     81.90000000    50.23000000    43.43000000
   H     83.07000000    50.48000000    44.68000000
   H     83.34000000    49.18000000    43.46000000
   N     83.78000000    44.44000000    45.50000000
   C     84.22000000    43.31000000    46.30000000
   C     85.18000000    42.32000000    45.67000000
   O     85.73000000    41.44000000    46.33000000
   C     83.06000000    42.63000000    47.01000000
   C     81.93000000    42.34000000    46.04000000
   O     80.90000000    43.04000000    46.03000000
   O     82.09000000    41.38000000    45.25000000
   H     83.23000000    44.25000000    44.68000000
   H     84.82000000    43.65000000    47.16000000
   H     82.72000000    43.22000000    47.86000000
   H     83.47000000    41.72000000    47.45000000
   N     85.23000000    42.36000000    44.34000000
   C     85.87000000    41.42000000    43.44000000
   C     85.19000000    40.07000000    43.24000000
   O     85.97000000    39.17000000    42.95000000
   H     84.60000000    43.01000000    43.89000000
   H     86.90000000    41.31000000    43.79000000
   H     85.84000000    41.85000000    42.44000000
   N     83.87000000    39.85000000    43.35000000
   C     83.31000000    38.65000000    42.77000000
   C     83.03000000    38.77000000    41.28000000
   O     82.87000000    37.75000000    40.62000000
   C     82.20000000    38.07000000    43.64000000
   C     80.91000000    38.88000000    43.63000000
   O     80.92000000    39.98000000    43.05000000
   O     79.89000000    38.45000000    44.22000000
   H     83.24000000    40.56000000    43.69000000
   H     84.13000000    37.92000000    42.82000000
   H     82.64000000    37.97000000    44.63000000
   H     81.94000000    37.05000000    43.37000000
   N     82.85000000    40.00000000    40.80000000
   C     82.58000000    40.26000000    39.40000000
   C     81.09000000    40.24000000    39.06000000
   O     80.72000000    40.35000000    37.90000000
   H     82.62000000    40.75000000    41.42000000
   H     83.07000000    39.55000000    38.73000000
   H     82.90000000    41.30000000    39.25000000
   N     80.17000000    40.02000000    40.00000000
   C     78.78000000    40.37000000    39.84000000
   C     78.49000000    41.64000000    40.63000000
   O     78.67000000    41.73000000    41.84000000
   C     77.90000000    39.19000000    40.27000000
   C     78.00000000    37.97000000    39.37000000
   C     76.94000000    37.90000000    38.27000000
   N     76.99000000    36.85000000    37.46000000
   O     75.99000000    38.67000000    38.15000000
   H     80.52000000    39.83000000    40.93000000
   H     78.69000000    40.62000000    38.78000000
   H     76.86000000    39.52000000    40.24000000
   H     78.19000000    39.00000000    41.30000000
   H     77.86000000    37.09000000    40.00000000
   H     79.03000000    37.78000000    39.06000000
   H     77.90000000    36.42000000    37.36000000
   H     76.28000000    36.62000000    36.77000000
   N     78.13000000    42.63000000    39.81000000
   C     77.92000000    44.02000000    40.15000000
   C     76.52000000    44.39000000    40.60000000
   O     75.63000000    44.47000000    39.76000000
   C     78.39000000    44.98000000    39.06000000
   C     78.41000000    46.41000000    39.60000000
   C     79.77000000    44.67000000    38.49000000
   H     78.05000000    42.33000000    38.85000000
   H     78.57000000    44.27000000    40.99000000
   H     77.66000000    44.90000000    38.25000000
   H     78.80000000    47.08000000    38.84000000
   H     77.38000000    46.75000000    39.73000000
   H     79.08000000    46.46000000    40.46000000
   H     80.06000000    45.44000000    37.77000000
   H     80.46000000    44.51000000    39.32000000
   H     79.77000000    43.73000000    37.94000000
   N     76.29000000    44.56000000    41.91000000
   C     74.99000000    44.88000000    42.48000000
   C     74.58000000    46.33000000    42.33000000
   O     75.45000000    47.18000000    42.12000000
   C     75.06000000    44.45000000    43.95000000
   C     73.74000000    44.60000000    44.69000000
   N     72.64000000    44.11000000    44.11000000
   O     73.65000000    45.33000000    45.67000000
   H     77.15000000    44.40000000    42.40000000
   H     74.19000000    44.31000000    42.01000000
   H     75.84000000    45.00000000    44.48000000
   H     75.22000000    43.38000000    43.89000000
   H     72.57000000    43.64000000    43.22000000
   H     71.85000000    44.14000000    44.73000000
   N     73.30000000    46.68000000    42.49000000
   C     72.76000000    48.01000000    42.69000000
   C     73.60000000    48.74000000    43.73000000
   O     73.96000000    49.90000000    43.54000000
   C     71.30000000    47.96000000    43.14000000
   C     70.68000000    49.34000000    43.16000000
   C     70.36000000    50.01000000    41.97000000
   C     70.36000000    49.91000000    44.39000000
   C     69.73000000    51.26000000    42.03000000
   C     69.73000000    51.16000000    44.45000000
   C     69.48000000    51.89000000    43.27000000
   O     68.98000000    53.16000000    43.23000000
   H     72.63000000    45.95000000    42.63000000
   H     72.86000000    48.56000000    41.75000000
   H     71.18000000    47.61000000    44.16000000
   H     70.80000000    47.33000000    42.41000000
   H     70.63000000    49.51000000    41.05000000
   H     70.58000000    49.48000000    45.36000000
   H     69.71000000    51.90000000    41.17000000
   H     69.60000000    51.62000000    45.42000000
   H     68.99000000    53.54000000    44.11000000
   N     74.01000000    48.09000000    44.82000000
   C     74.88000000    48.74000000    45.78000000
   C     76.17000000    49.29000000    45.19000000
   O     76.73000000    50.29000000    45.63000000
   C     75.20000000    47.79000000    46.94000000
   C     75.90000000    48.56000000    48.05000000
   C     76.15000000    47.54000000    49.16000000
   O     75.23000000    46.91000000    49.72000000
   O     77.33000000    47.50000000    49.54000000
   H     73.77000000    47.11000000    44.86000000
   H     74.26000000    49.55000000    46.17000000
   H     75.84000000    47.01000000    46.52000000
   H     74.25000000    47.40000000    47.29000000
   H     75.29000000    49.39000000    48.38000000
   H     76.90000000    48.86000000    47.72000000
   N     76.74000000    48.61000000    44.18000000
   C     78.06000000    48.80000000    43.62000000
   C     77.92000000    49.76000000    42.45000000
   O     78.76000000    50.66000000    42.38000000
   C     78.57000000    47.42000000    43.22000000
   C     78.83000000    46.54000000    44.44000000
   C     79.24000000    45.11000000    44.09000000
   O     80.42000000    44.90000000    43.73000000
   O     78.43000000    44.17000000    44.17000000
   H     76.22000000    47.80000000    43.89000000
   H     78.73000000    49.25000000    44.35000000
   H     79.52000000    47.60000000    42.70000000
   H     77.89000000    46.91000000    42.55000000
   H     77.86000000    46.43000000    44.93000000
   H     79.44000000    47.04000000    45.19000000
   N     76.92000000    49.69000000    41.56000000
   C     76.50000000    50.76000000    40.68000000
   H     75.60700000    51.23400000    41.08600000
   H     77.29800000    51.49800000    40.59900000
   H     76.27800000    50.35400000    39.69300000
   H     76.38000000    48.84000000    41.56000000
  Ca     80.29000000    42.28000000    43.66000000
   O     78.66000000    40.86000000    45.25000000
   H     78.27000000    40.99000000    46.12000000
   H     78.82000000    39.92000000    45.20000000

Ca 1.70



