%chk=loop2.cluster98.chk
%nprocshared=48
%mem=10GB
%nosave
#b3lyp/svp scf=(tight,noincore) Test 
#IOP(5/87=12) Density=Current Pop=(MK,readradii) iop(6/33=2) iop(6/42=6)

loop2.cluster98 

   -2  1 
   C     44.30000000    77.53000000    27.76000000
   C     43.69000000    77.79000000    29.13000000
   O     43.56000000    78.96000000    29.48000000
   H     45.31600000    77.15400000    27.88100000
   H     43.70000000    76.79100000    27.22900000
   H     44.32200000    78.45800000    27.18900000
   N     43.42000000    76.85000000    30.03000000
   C     42.99000000    77.09000000    31.39000000
   C     44.18000000    77.47000000    32.25000000
   O     44.21000000    78.56000000    32.82000000
   C     42.33000000    75.85000000    31.99000000
   C     41.70000000    76.09000000    33.36000000
   O     41.22000000    77.23000000    33.53000000
   O     41.78000000    75.24000000    34.27000000
   H     43.82000000    75.92000000    29.96000000
   H     42.29000000    77.92000000    31.46000000
   H     42.90000000    74.92000000    31.95000000
   H     41.47000000    75.71000000    31.33000000
   N     45.28000000    76.70000000    32.18000000
   C     46.55000000    76.98000000    32.81000000
   C     47.05000000    78.41000000    32.64000000
   O     47.66000000    78.89000000    33.59000000
   C     46.52000000    76.32000000    34.18000000
   H     45.33000000    75.92000000    31.54000000
   H     47.20000000    76.38000000    32.17000000
   H     45.78000000    76.76000000    34.85000000
   H     46.29000000    75.25000000    34.21000000
   H     47.52000000    76.33000000    34.62000000
   N     46.91000000    79.06000000    31.48000000
   C     47.24000000    80.43000000    31.14000000
   C     46.43000000    81.50000000    31.85000000
   O     46.91000000    82.63000000    31.99000000
   C     48.74000000    80.70000000    31.19000000
   C     49.58000000    79.59000000    30.57000000
   O     49.56000000    79.47000000    29.32000000
   O     50.30000000    78.85000000    31.28000000
   H     46.33000000    78.58000000    30.81000000
   H     47.04000000    80.49000000    30.08000000
   H     49.01000000    80.60000000    32.24000000
   H     49.04000000    81.66000000    30.76000000
   N     45.23000000    81.24000000    32.37000000
   C     44.45000000    82.06000000    33.28000000
   C     44.04000000    83.41000000    32.73000000
   O     43.63000000    83.56000000    31.58000000
   H     44.78000000    80.38000000    32.07000000
   H     45.14000000    82.10000000    34.13000000
   H     43.61000000    81.51000000    33.69000000
   N     44.20000000    84.45000000    33.56000000
   C     44.02000000    85.85000000    33.22000000
   C     42.62000000    86.10000000    32.68000000
   O     42.47000000    86.99000000    31.85000000
   C     45.21000000    86.33000000    32.40000000
   C     46.53000000    86.29000000    33.14000000
   N     47.15000000    85.11000000    33.11000000
   O     47.06000000    87.26000000    33.69000000
   H     44.59000000    84.26000000    34.47000000
   H     44.10000000    86.46000000    34.12000000
   H     45.05000000    87.38000000    32.16000000
   H     45.33000000    85.86000000    31.42000000
   H     46.75000000    84.34000000    32.59000000
   H     47.91000000    84.98000000    33.76000000
   N     41.56000000    85.49000000    33.22000000
   C     40.20000000    85.45000000    32.72000000
   C     39.81000000    84.36000000    31.73000000
   O     38.62000000    84.04000000    31.74000000
   H     41.71000000    84.84000000    33.98000000
   H     39.95000000    86.38000000    32.21000000
   H     39.51000000    85.43000000    33.56000000
   N     40.70000000    83.77000000    30.93000000
   C     40.47000000    82.78000000    29.91000000
   C     40.85000000    83.29000000    28.53000000
   O     41.74000000    84.12000000    28.39000000
   C     41.35000000    81.58000000    30.25000000
   C     41.26000000    80.95000000    31.64000000
   O     41.17000000    80.44000000    29.44000000
   H     41.65000000    84.11000000    31.01000000
   H     39.41000000    82.52000000    29.93000000
   H     42.36000000    81.95000000    30.09000000
   H     42.01000000    79.97000000    29.50000000
   H     40.25000000    80.60000000    31.89000000
   H     41.88000000    80.06000000    31.72000000
   H     41.55000000    81.61000000    32.45000000
   N     40.33000000    82.56000000    27.54000000
   C     40.76000000    82.63000000    26.15000000
   C     42.17000000    82.09000000    25.97000000
   O     42.75000000    81.45000000    26.85000000
   C     39.72000000    82.23000000    25.11000000
   C     39.07000000    80.86000000    25.25000000
   C     38.72000000    83.38000000    25.22000000
   C     40.06000000    79.70000000    25.17000000
   H     39.80000000    81.79000000    27.92000000
   H     41.02000000    83.67000000    25.97000000
   H     40.15000000    82.26000000    24.11000000
   H     38.36000000    80.75000000    24.43000000
   H     38.47000000    80.73000000    26.15000000
   H     39.10000000    84.40000000    25.17000000
   H     38.02000000    83.31000000    24.39000000
   H     38.19000000    83.23000000    26.17000000
   H     40.56000000    79.81000000    26.13000000
   H     39.68000000    78.69000000    25.07000000
   H     40.79000000    79.91000000    24.39000000
   N     42.74000000    82.22000000    24.77000000
   C     44.08000000    81.79000000    24.44000000
   C     45.10000000    82.81000000    24.94000000
   O     46.18000000    83.11000000    24.44000000
   C     44.23000000    81.38000000    22.98000000
   C     45.38000000    80.47000000    22.57000000
   O     45.59000000    80.30000000    21.35000000
   O     46.09000000    79.92000000    23.45000000
   H     42.19000000    82.65000000    24.03000000
   H     44.25000000    80.89000000    25.03000000
   H     44.16000000    82.20000000    22.27000000
   H     43.29000000    80.90000000    22.70000000
   N     44.74000000    83.40000000    26.08000000
   C     45.61000000    84.33000000    26.77000000
   C     45.71000000    85.66000000    26.04000000
   O     46.86000000    86.03000000    25.82000000
   C     45.36000000    84.50000000    28.27000000
   C     46.31000000    85.47000000    28.93000000
   C     45.90000000    86.79000000    29.16000000
   C     47.60000000    85.00000000    29.21000000
   C     46.80000000    87.71000000    29.71000000
   C     48.44000000    85.93000000    29.83000000
   C     48.04000000    87.23000000    30.15000000
   H     43.93000000    83.09000000    26.59000000
   H     46.61000000    83.88000000    26.76000000
   H     45.42000000    83.50000000    28.69000000
   H     44.34000000    84.85000000    28.38000000
   H     44.86000000    87.09000000    29.17000000
   H     48.01000000    84.01000000    29.06000000
   H     46.51000000    88.75000000    29.84000000
   H     49.45000000    85.63000000    30.11000000
   H     48.79000000    87.93000000    30.48000000
   N     44.68000000    86.44000000    25.70000000
   C     43.27000000    86.43000000    26.03000000
   C     42.48000000    85.86000000    24.86000000
   O     41.26000000    85.95000000    24.91000000
   C     42.91000000    87.82000000    26.55000000
   C     44.01000000    88.71000000    25.98000000
   C     44.85000000    87.76000000    25.12000000
   H     43.07000000    85.82000000    26.91000000
   H     41.90000000    88.12000000    26.25000000
   H     42.87000000    87.76000000    27.64000000
   H     43.62000000    89.43000000    25.27000000
   H     44.57000000    89.14000000    26.81000000
   H     44.66000000    87.74000000    24.05000000
   H     45.90000000    88.01000000    25.21000000
   N     43.20000000    85.57000000    23.78000000
   C     42.69000000    85.67000000    22.43000000
   C     41.75000000    84.55000000    21.99000000
   O     41.88000000    83.37000000    22.31000000
   C     43.89000000    85.74000000    21.50000000
   C     43.57000000    85.89000000    20.01000000
   C     43.02000000    87.27000000    19.69000000
   O     43.80000000    88.24000000    19.58000000
   O     41.78000000    87.44000000    19.64000000
   H     44.18000000    85.35000000    23.91000000
   H     42.03000000    86.53000000    22.37000000
   H     44.40000000    84.78000000    21.43000000
   H     44.55000000    86.55000000    21.82000000
   H     42.93000000    85.11000000    19.61000000
   H     44.53000000    85.88000000    19.50000000
   N     40.82000000    84.89000000    21.08000000
   C     40.00000000    83.92000000    20.39000000
   H     39.08700000    84.40100000    20.03900000
   H     40.54900000    83.51900000    19.53800000
   H     39.74400000    83.10900000    21.07200000
   H     40.62000000    85.87000000    20.97000000
  Ca     52.10000000    77.52000000    32.29000000
   O     50.72000000    75.77000000    30.67000000
   H     50.31000000    75.87000000    29.81000000
   H     50.85000000    74.82000000    30.76000000
   O     50.19000000    77.57000000    34.26000000
   H     49.97000000    77.06000000    35.04000000
   H     49.52000000    78.25000000    34.23000000
   O     53.82000000    76.53000000    34.30000000
   H     54.70000000    76.15000000    34.32000000
   H     53.50000000    76.43000000    35.20000000
   O     52.21000000    79.72000000    33.88000000
   H     51.71000000    80.54000000    33.94000000
   H     52.47000000    79.54000000    34.78000000
   O     54.19000000    76.47000000    30.96000000
   H     54.41000000    75.55000000    30.78000000
   H     55.03000000    76.92000000    30.95000000
   O     53.70000000    79.38000000    31.22000000
   H     54.56000000    79.67000000    31.53000000
   H     53.23000000    80.20000000    31.02000000

Ca 1.70



