%chk=loop2.cluster197.chk
%nprocshared=48
%mem=10GB
%nosave
#b3lyp/svp scf=(tight,noincore) Test 
#IOP(5/87=12) Density=Current Pop=(MK,readradii) iop(6/33=2) iop(6/42=6)

loop2.cluster197 

   -2  1 
   C     69.99000000    38.31000000    14.06000000
   C     68.99000000    37.73000000    15.06000000
   O     68.59000000    38.43000000    15.98000000
   H     70.93300000    37.76800000    14.13400000
   H     69.59300000    38.21100000    13.05000000
   H     70.15800000    39.36400000    14.28300000
   N     68.45000000    36.51000000    14.97000000
   C     68.72000000    35.48000000    13.99000000
   C     68.75000000    34.11000000    14.65000000
   O     67.77000000    33.56000000    15.15000000
   C     67.64000000    35.58000000    12.91000000
   C     66.29000000    35.13000000    13.45000000
   O     65.93000000    33.98000000    13.14000000
   O     65.68000000    35.77000000    14.34000000
   H     67.63000000    36.35000000    15.54000000
   H     69.65000000    35.68000000    13.48000000
   H     67.92000000    34.91000000    12.10000000
   H     67.52000000    36.59000000    12.51000000
   N     69.98000000    33.62000000    14.78000000
   C     70.17000000    32.21000000    15.04000000
   C     69.74000000    31.96000000    16.48000000
   O     70.29000000    32.48000000    17.45000000
   C     71.63000000    31.87000000    14.77000000
   H     70.80000000    34.13000000    14.47000000
   H     69.55000000    31.58000000    14.40000000
   H     72.26000000    32.54000000    15.36000000
   H     71.94000000    30.86000000    15.02000000
   H     71.84000000    32.04000000    13.72000000
   N     68.76000000    31.07000000    16.65000000
   C     68.37000000    30.44000000    17.89000000
   C     67.68000000    29.08000000    17.84000000
   O     66.88000000    28.87000000    16.93000000
   C     67.48000000    31.39000000    18.70000000
   C     66.44000000    32.14000000    17.88000000
   O     65.52000000    31.50000000    17.33000000
   O     66.47000000    33.38000000    17.73000000
   H     68.31000000    30.76000000    15.80000000
   H     69.27000000    30.35000000    18.49000000
   H     68.16000000    32.14000000    19.11000000
   H     66.95000000    30.90000000    19.51000000
   N     67.98000000    28.06000000    18.64000000
   C     67.58000000    26.70000000    18.34000000
   C     66.20000000    26.32000000    18.87000000
   O     65.26000000    27.09000000    19.08000000
   H     68.44000000    28.30000000    19.51000000
   H     68.32000000    26.11000000    18.87000000
   H     67.61000000    26.45000000    17.28000000
   N     66.13000000    25.01000000    19.09000000
   C     65.00000000    24.41000000    19.77000000
   C     64.82000000    25.00000000    21.16000000
   O     63.74000000    25.43000000    21.55000000
   C     65.20000000    22.91000000    20.00000000
   C     64.19000000    22.24000000    20.92000000
   N     63.15000000    21.61000000    20.36000000
   O     64.40000000    22.20000000    22.13000000
   H     66.91000000    24.40000000    18.89000000
   H     64.14000000    24.65000000    19.14000000
   H     66.23000000    22.72000000    20.30000000
   H     65.26000000    22.44000000    19.02000000
   H     63.03000000    21.47000000    19.37000000
   H     62.58000000    21.06000000    20.99000000
   N     65.93000000    25.10000000    21.89000000
   C     65.98000000    25.69000000    23.21000000
   C     66.59000000    24.78000000    24.26000000
   O     67.28000000    23.81000000    23.97000000
   H     66.75000000    24.84000000    21.36000000
   H     64.93000000    25.87000000    23.43000000
   H     66.54000000    26.63000000    23.18000000
   N     66.45000000    25.00000000    25.57000000
   C     65.81000000    26.19000000    26.10000000
   C     66.65000000    27.25000000    26.80000000
   O     66.10000000    28.30000000    27.10000000
   C     64.70000000    25.86000000    27.10000000
   C     63.66000000    24.87000000    26.57000000
   O     65.38000000    25.26000000    28.18000000
   H     66.79000000    24.33000000    26.23000000
   H     65.32000000    26.75000000    25.31000000
   H     64.14000000    26.73000000    27.44000000
   H     65.56000000    26.01000000    28.75000000
   H     62.92000000    24.68000000    27.34000000
   H     63.23000000    25.39000000    25.72000000
   H     64.15000000    23.93000000    26.32000000
   N     67.97000000    27.06000000    26.90000000
   C     69.00000000    27.91000000    27.45000000
   C     68.77000000    28.20000000    28.92000000
   O     68.38000000    29.32000000    29.24000000
   C     69.08000000    29.09000000    26.49000000
   C     69.00000000    28.71000000    25.02000000
   C     70.34000000    29.92000000    26.76000000
   C     70.05000000    27.77000000    24.43000000
   H     68.24000000    26.10000000    26.71000000
   H     69.95000000    27.36000000    27.42000000
   H     68.20000000    29.71000000    26.64000000
   H     69.09000000    29.62000000    24.42000000
   H     67.98000000    28.45000000    24.72000000
   H     70.33000000    30.76000000    26.07000000
   H     70.35000000    30.43000000    27.72000000
   H     71.29000000    29.44000000    26.56000000
   H     70.99000000    28.33000000    24.37000000
   H     70.15000000    26.96000000    25.15000000
   H     69.84000000    27.39000000    23.43000000
   N     68.98000000    27.25000000    29.84000000
   C     69.60000000    25.97000000    29.59000000
   C     71.11000000    26.05000000    29.39000000
   O     71.66000000    25.56000000    28.41000000
   C     69.21000000    24.85000000    30.55000000
   C     69.61000000    25.14000000    31.99000000
   O     70.32000000    24.24000000    32.49000000
   O     69.26000000    26.20000000    32.55000000
   H     68.87000000    27.45000000    30.83000000
   H     69.33000000    25.69000000    28.57000000
   H     69.70000000    23.94000000    30.20000000
   H     68.13000000    24.81000000    30.52000000
   N     71.76000000    26.62000000    30.41000000
   C     73.16000000    26.99000000    30.38000000
   C     73.86000000    26.65000000    31.69000000
   O     73.16000000    26.72000000    32.69000000
   C     73.29000000    28.40000000    29.81000000
   C     72.81000000    29.57000000    30.64000000
   C     71.53000000    30.10000000    30.51000000
   C     73.71000000    30.17000000    31.52000000
   C     71.18000000    31.25000000    31.24000000
   C     73.38000000    31.36000000    32.19000000
   C     72.11000000    31.93000000    32.04000000
   H     71.23000000    26.77000000    31.26000000
   H     73.53000000    26.32000000    29.60000000
   H     72.67000000    28.30000000    28.92000000
   H     74.30000000    28.64000000    29.48000000
   H     70.75000000    29.67000000    29.90000000
   H     74.70000000    29.73000000    31.57000000
   H     70.17000000    31.62000000    31.11000000
   H     74.14000000    31.89000000    32.74000000
   H     71.84000000    32.83000000    32.57000000
   N     75.13000000    26.29000000    31.89000000
   C     76.16000000    26.20000000    30.87000000
   C     75.90000000    25.34000000    29.65000000
   O     74.94000000    24.57000000    29.65000000
   C     77.42000000    25.66000000    31.56000000
   C     76.83000000    24.92000000    32.76000000
   C     75.67000000    25.82000000    33.15000000
   H     76.49000000    27.17000000    30.50000000
   H     78.00000000    25.00000000    30.93000000
   H     78.11000000    26.43000000    31.89000000
   H     76.56000000    23.90000000    32.49000000
   H     77.51000000    24.75000000    33.59000000
   H     75.00000000    25.22000000    33.77000000
   H     76.07000000    26.62000000    33.77000000
   N     76.57000000    25.48000000    28.50000000
   C     76.43000000    24.75000000    27.26000000
   C     77.07000000    25.40000000    26.04000000
   O     78.06000000    24.94000000    25.48000000
   C     76.88000000    23.31000000    27.52000000
   C     76.56000000    22.29000000    26.43000000
   C     76.05000000    20.99000000    27.05000000
   O     74.90000000    21.07000000    27.53000000
   O     76.73000000    19.94000000    27.08000000
   H     77.30000000    26.18000000    28.51000000
   H     75.37000000    24.78000000    27.02000000
   H     76.48000000    22.94000000    28.46000000
   H     77.95000000    23.26000000    27.72000000
   H     77.41000000    22.08000000    25.79000000
   H     75.72000000    22.74000000    25.90000000
   N     76.58000000    26.55000000    25.58000000
   C     75.75000000    27.57000000    26.20000000
   H     74.78800000    27.13700000    26.47600000
   H     76.24600000    27.95000000    27.09300000
   H     75.59100000    28.38700000    25.49600000
   H     76.93000000    26.87000000    24.69000000
  Ca     65.04000000    33.37000000    15.47000000
   O     63.82000000    34.98000000    17.17000000
   H     63.80000000    35.34000000    18.06000000
   H     63.13000000    35.44000000    16.71000000
   O     62.93000000    34.56000000    13.98000000
   H     62.05000000    34.24000000    13.79000000
   H     62.87000000    35.51000000    13.86000000
   O     65.73000000    31.15000000    14.01000000
   H     66.52000000    31.04000000    13.49000000
   H     65.52000000    30.27000000    14.32000000
   O     62.57000000    32.40000000    16.00000000
   H     62.37000000    32.24000000    16.92000000
   H     61.73000000    32.25000000    15.55000000

Ca 1.70



