%chk=loop2.cluster58.chk
%nprocshared=48
%mem=10GB
%nosave
#b3lyp/svp scf=(tight,noincore) Test 
#IOP(5/87=12) Density=Current Pop=(MK,readradii) iop(6/33=2) iop(6/42=6)

loop2.cluster58 

   -2  1 
   C     80.59000000    48.86000000    59.58000000
   C     79.28000000    48.90000000    58.80000000
   O     78.34000000    48.15000000    59.07000000
   H     81.32500000    49.49600000    59.08700000
   H     80.42100000    49.22000000    60.59500000
   H     80.96200000    47.83600000    59.61500000
   N     79.16000000    49.83000000    57.85000000
   C     77.92000000    49.98000000    57.12000000
   C     77.04000000    51.09000000    57.68000000
   O     77.45000000    52.25000000    57.74000000
   C     78.22000000    50.25000000    55.65000000
   C     79.23000000    49.27000000    55.06000000
   O     78.88000000    48.10000000    54.78000000
   O     80.42000000    49.62000000    54.91000000
   H     79.92000000    50.47000000    57.66000000
   H     77.37000000    49.04000000    57.18000000
   H     78.73000000    51.20000000    55.50000000
   H     77.28000000    50.39000000    55.11000000
   N     75.74000000    50.83000000    57.84000000
   C     74.77000000    51.73000000    58.43000000
   C     73.95000000    50.97000000    59.47000000
   O     73.99000000    49.75000000    59.42000000
   C     74.01000000    52.29000000    57.23000000
   H     75.38000000    49.92000000    57.59000000
   H     75.18000000    52.54000000    59.02000000
   H     73.02000000    52.67000000    57.51000000
   H     74.61000000    53.06000000    56.74000000
   H     73.90000000    51.50000000    56.49000000
   N     73.25000000    51.52000000    60.47000000
   C     72.73000000    52.87000000    60.52000000
   C     73.80000000    53.89000000    60.91000000
   O     74.72000000    53.59000000    61.66000000
   C     71.58000000    52.97000000    61.52000000
   C     70.64000000    51.78000000    61.41000000
   O     71.06000000    50.78000000    62.04000000
   O     69.67000000    51.73000000    60.63000000
   H     72.70000000    50.87000000    61.02000000
   H     72.35000000    53.08000000    59.53000000
   H     70.97000000    53.85000000    61.33000000
   H     72.03000000    52.96000000    62.52000000
   N     73.70000000    55.13000000    60.42000000
   C     74.68000000    56.17000000    60.64000000
   C     75.68000000    56.16000000    59.50000000
   O     75.40000000    55.76000000    58.37000000
   H     72.83000000    55.42000000    60.02000000
   H     75.27000000    55.97000000    61.54000000
   H     74.21000000    57.15000000    60.65000000
   N     76.92000000    56.60000000    59.72000000
   C     77.34000000    57.48000000    60.80000000
   C     78.41000000    56.83000000    61.67000000
   O     78.79000000    57.58000000    62.57000000
   C     77.80000000    58.86000000    60.34000000
   C     76.84000000    59.58000000    59.40000000
   N     77.31000000    60.39000000    58.44000000
   O     75.63000000    59.39000000    59.47000000
   H     77.57000000    56.33000000    59.00000000
   H     76.50000000    57.78000000    61.42000000
   H     78.70000000    58.70000000    59.74000000
   H     78.02000000    59.46000000    61.22000000
   H     78.30000000    60.59000000    58.46000000
   H     76.78000000    60.86000000    57.73000000
   N     78.89000000    55.59000000    61.52000000
   C     79.73000000    54.94000000    62.51000000
   C     79.09000000    54.43000000    63.79000000
   O     79.74000000    53.75000000    64.57000000
   H     78.58000000    55.01000000    60.76000000
   H     80.47000000    55.68000000    62.81000000
   H     80.30000000    54.13000000    62.05000000
   N     77.83000000    54.77000000    64.07000000
   C     77.07000000    54.49000000    65.28000000
   C     76.62000000    53.05000000    65.43000000
   O     76.12000000    52.48000000    64.46000000
   C     75.90000000    55.48000000    65.26000000
   C     75.22000000    55.72000000    66.61000000
   O     76.28000000    56.78000000    64.88000000
   H     77.30000000    55.19000000    63.32000000
   H     77.66000000    54.71000000    66.17000000
   H     75.14000000    55.07000000    64.60000000
   H     77.02000000    57.07000000    65.42000000
   H     75.56000000    56.65000000    67.06000000
   H     74.14000000    55.80000000    66.54000000
   H     75.58000000    54.93000000    67.27000000
   N     76.85000000    52.50000000    66.63000000
   C     76.56000000    51.10000000    66.85000000
   C     75.57000000    50.88000000    67.99000000
   O     75.47000000    51.71000000    68.89000000
   C     77.81000000    50.23000000    66.98000000
   C     78.36000000    49.72000000    65.66000000
   C     78.97000000    50.84000000    67.77000000
   C     77.50000000    48.66000000    64.97000000
   H     77.00000000    53.03000000    67.48000000
   H     76.02000000    50.74000000    65.97000000
   H     77.67000000    49.29000000    67.51000000
   H     79.30000000    49.24000000    65.93000000
   H     78.62000000    50.52000000    64.96000000
   H     79.69000000    50.05000000    67.96000000
   H     79.56000000    51.61000000    67.27000000
   H     78.56000000    51.19000000    68.72000000
   H     78.10000000    48.26000000    64.15000000
   H     77.29000000    47.81000000    65.60000000
   H     76.67000000    49.26000000    64.59000000
   N     74.85000000    49.76000000    68.03000000
   C     73.82000000    49.35000000    68.97000000
   C     73.75000000    47.83000000    68.97000000
   O     73.91000000    47.22000000    67.92000000
   C     72.47000000    49.98000000    68.65000000
   C     72.08000000    49.91000000    67.18000000
   O     72.63000000    50.63000000    66.31000000
   O     71.17000000    49.11000000    66.89000000
   H     74.88000000    49.25000000    67.16000000
   H     74.03000000    49.70000000    69.98000000
   H     72.63000000    51.03000000    68.91000000
   H     71.67000000    49.51000000    69.20000000
   N     73.75000000    47.16000000    70.13000000
   C     73.39000000    45.77000000    70.28000000
   C     74.26000000    44.83000000    69.47000000
   O     75.48000000    44.98000000    69.57000000
   C     73.36000000    45.28000000    71.73000000
   C     73.26000000    43.81000000    72.02000000
   C     74.42000000    43.01000000    72.04000000
   C     72.01000000    43.21000000    72.22000000
   C     74.28000000    41.62000000    72.13000000
   C     71.91000000    41.82000000    72.35000000
   C     73.04000000    41.00000000    72.31000000
   H     73.71000000    47.73000000    70.96000000
   H     72.38000000    45.56000000    69.91000000
   H     72.53000000    45.73000000    72.28000000
   H     74.32000000    45.61000000    72.13000000
   H     75.41000000    43.43000000    71.96000000
   H     71.10000000    43.79000000    72.10000000
   H     75.20000000    41.05000000    72.13000000
   H     70.95000000    41.34000000    72.47000000
   H     72.97000000    39.95000000    72.54000000
   N     73.77000000    43.78000000    68.80000000
   C     74.49000000    42.71000000    68.15000000
   C     75.30000000    43.15000000    66.93000000
   O     76.09000000    42.37000000    66.41000000
   C     73.47000000    41.63000000    67.77000000
   C     72.17000000    42.40000000    67.58000000
   C     72.36000000    43.52000000    68.60000000
   H     75.21000000    42.28000000    68.84000000
   H     73.75000000    40.94000000    66.98000000
   H     73.33000000    41.00000000    68.65000000
   H     72.09000000    42.85000000    66.59000000
   H     71.28000000    41.85000000    67.89000000
   H     71.82000000    44.37000000    68.19000000
   H     71.89000000    43.24000000    69.54000000
   N     75.21000000    44.40000000    66.48000000
   C     75.73000000    44.78000000    65.18000000
   C     77.24000000    44.97000000    65.19000000
   O     77.90000000    45.14000000    64.17000000
   C     74.95000000    46.03000000    64.78000000
   C     73.52000000    45.69000000    64.39000000
   C     72.67000000    46.93000000    64.15000000
   O     71.42000000    46.99000000    64.20000000
   O     73.26000000    47.92000000    63.66000000
   H     74.66000000    45.10000000    66.96000000
   H     75.57000000    44.05000000    64.39000000
   H     75.50000000    46.51000000    63.97000000
   H     75.01000000    46.70000000    65.64000000
   H     72.98000000    45.20000000    65.21000000
   H     73.53000000    45.17000000    63.43000000
   N     77.81000000    45.12000000    66.39000000
   C     79.15000000    45.55000000    66.73000000
   H     79.80200000    45.42200000    65.86600000
   H     79.13300000    46.60100000    67.01900000
   H     79.52500000    44.95100000    67.56000000
   H     77.18000000    45.06000000    67.18000000
  Ca     71.29000000    49.64000000    64.29000000
   O     68.94000000    48.67000000    63.86000000
   H     68.49000000    48.29000000    63.11000000
   H     68.58000000    48.21000000    64.62000000
   O     73.68000000    50.69000000    63.40000000
   H     74.46000000    50.22000000    63.13000000
   H     73.50000000    51.30000000    62.68000000

Ca 1.70



