%chk=loop1.cluster46.chk
%nprocshared=48
%mem=10GB
%nosave
#b3lyp/svp scf=(tight,noincore) Test 
#IOP(5/87=12) Density=Current Pop=(MK,readradii) iop(6/33=2) iop(6/42=6)

loop1.cluster46 

   0  1 
   C     66.98000000    47.88000000    21.13000000
   C     68.26000000    47.59000000    20.37000000
   O     68.36000000    46.46000000    19.90000000
   H     66.17000000    47.27800000    20.71900000
   H     67.11800000    47.63300000    22.18300000
   H     66.73100000    48.93700000    21.03400000
   N     69.24000000    48.49000000    20.23000000
   C     70.45000000    48.35000000    19.45000000
   C     71.54000000    47.45000000    20.01000000
   O     72.68000000    47.80000000    20.33000000
   C     70.88000000    49.72000000    18.95000000
   C     71.92000000    49.72000000    17.83000000
   O     72.85000000    50.55000000    17.88000000
   O     71.84000000    48.85000000    16.94000000
   H     69.11000000    49.39000000    20.68000000
   H     70.17000000    47.80000000    18.55000000
   H     71.29000000    50.32000000    19.77000000
   H     70.06000000    50.41000000    18.74000000
   N     71.19000000    46.17000000    20.13000000
   C     72.01000000    45.10000000    20.67000000
   C     73.29000000    44.75000000    19.93000000
   O     74.06000000    43.99000000    20.51000000
   C     71.06000000    43.93000000    20.92000000
   C     70.19000000    43.96000000    22.17000000
   C     69.26000000    42.75000000    22.33000000
   C     68.25000000    42.71000000    23.47000000
   N     67.17000000    43.67000000    23.21000000
   H     70.39000000    45.80000000    19.64000000
   H     72.38000000    45.45000000    21.64000000
   H     71.57000000    42.97000000    21.04000000
   H     70.35000000    43.82000000    20.10000000
   H     69.60000000    44.87000000    22.09000000
   H     70.84000000    43.97000000    23.05000000
   H     69.90000000    41.87000000    22.36000000
   H     68.70000000    42.59000000    21.42000000
   H     68.67000000    43.02000000    24.43000000
   H     67.76000000    41.74000000    23.55000000
   H     67.53000000    44.54000000    23.56000000
   H     66.94000000    43.75000000    22.23000000
   H     66.32000000    43.39000000    23.69000000
   N     73.57000000    45.38000000    18.79000000
   C     74.90000000    45.30000000    18.23000000
   C     75.51000000    46.68000000    17.99000000
   O     76.62000000    46.70000000    17.45000000
   C     74.90000000    44.34000000    17.05000000
   C     74.08000000    44.72000000    15.82000000
   O     73.90000000    43.82000000    14.98000000
   O     73.45000000    45.80000000    15.86000000
   H     72.88000000    46.08000000    18.53000000
   H     75.53000000    44.70000000    18.89000000
   H     74.48000000    43.45000000    17.54000000
   H     75.92000000    44.32000000    16.66000000
   N     74.96000000    47.83000000    18.38000000
   C     75.65000000    49.10000000    18.48000000
   C     75.70000000    49.89000000    17.18000000
   O     76.16000000    51.03000000    17.24000000
   H     74.04000000    47.78000000    18.79000000
   H     76.65000000    48.82000000    18.81000000
   H     75.20000000    49.71000000    19.27000000
   N     75.35000000    49.34000000    16.02000000
   C     75.48000000    49.99000000    14.73000000
   C     74.53000000    51.13000000    14.39000000
   O     74.66000000    51.75000000    13.33000000
   C     75.65000000    49.06000000    13.53000000
   C     74.51000000    48.09000000    13.25000000
   O     73.50000000    48.24000000    13.96000000
   O     74.57000000    47.19000000    12.38000000
   H     74.97000000    48.41000000    16.15000000
   H     76.48000000    50.42000000    14.69000000
   H     76.44000000    48.37000000    13.81000000
   H     75.93000000    49.67000000    12.67000000
   N     73.65000000    51.52000000    15.31000000
   C     73.04000000    52.83000000    15.26000000
   C     71.61000000    52.77000000    14.74000000
   O     71.05000000    53.85000000    14.60000000
   H     73.60000000    50.97000000    16.15000000
   H     73.63000000    53.52000000    14.66000000
   H     72.99000000    53.25000000    16.27000000
   N     71.09000000    51.60000000    14.37000000
   C     69.79000000    51.35000000    13.78000000
   C     69.04000000    50.18000000    14.40000000
   O     69.65000000    49.21000000    14.83000000
   C     69.90000000    51.12000000    12.28000000
   C     70.14000000    52.45000000    11.57000000
   O     71.03000000    50.37000000    11.88000000
   H     71.73000000    50.83000000    14.48000000
   H     69.27000000    52.30000000    13.94000000
   H     69.04000000    50.59000000    11.84000000
   H     71.75000000    50.97000000    11.68000000
   H     69.21000000    53.02000000    11.59000000
   H     70.94000000    52.99000000    12.07000000
   H     70.40000000    52.26000000    10.53000000
   N     67.70000000    50.26000000    14.37000000
   C     66.87000000    49.19000000    14.88000000
   C     66.30000000    48.44000000    13.68000000
   O     65.65000000    48.97000000    12.78000000
   C     65.82000000    49.66000000    15.88000000
   C     66.34000000    50.53000000    17.03000000
   C     64.96000000    48.52000000    16.40000000
   C     65.41000000    51.38000000    17.89000000
   H     67.37000000    51.14000000    14.00000000
   H     67.43000000    48.44000000    15.43000000
   H     65.14000000    50.28000000    15.30000000
   H     67.19000000    51.10000000    16.65000000
   H     66.75000000    49.77000000    17.70000000
   H     65.63000000    47.89000000    16.98000000
   H     64.07000000    48.89000000    16.92000000
   H     64.65000000    47.95000000    15.53000000
   H     65.03000000    52.27000000    17.40000000
   H     64.58000000    50.79000000    18.30000000
   H     65.98000000    51.87000000    18.68000000
   N     66.51000000    47.13000000    13.64000000
   C     65.88000000    46.24000000    12.69000000
   C     64.52000000    45.74000000    13.14000000
   O     64.24000000    45.56000000    14.32000000
   C     66.77000000    45.05000000    12.34000000
   C     67.99000000    45.44000000    11.51000000
   O     67.21000000    44.36000000    13.49000000
   H     67.09000000    46.74000000    14.38000000
   H     65.75000000    46.72000000    11.72000000
   H     66.11000000    44.41000000    11.75000000
   H     67.89000000    44.91000000    13.89000000
   H     67.77000000    45.90000000    10.55000000
   H     68.62000000    46.11000000    12.11000000
   H     68.59000000    44.58000000    11.20000000
   N     63.70000000    45.23000000    12.22000000
   C     62.53000000    44.45000000    12.60000000
   C     62.91000000    43.26000000    13.47000000
   O     62.20000000    42.97000000    14.43000000
   C     61.79000000    43.88000000    11.40000000
   C     60.84000000    44.87000000    10.74000000
   O     62.70000000    43.24000000    10.53000000
   H     63.89000000    45.46000000    11.25000000
   H     61.95000000    45.10000000    13.26000000
   H     61.17000000    43.05000000    11.74000000
   H     62.47000000    42.31000000    10.63000000
   H     60.17000000    45.21000000    11.53000000
   H     61.40000000    45.77000000    10.47000000
   H     60.24000000    44.49000000     9.91000000
   N     64.07000000    42.66000000    13.19000000
   C     64.48000000    41.58000000    14.06000000
   C     64.85000000    42.02000000    15.46000000
   O     64.53000000    41.31000000    16.41000000
   C     65.64000000    40.89000000    13.34000000
   C     66.07000000    39.63000000    14.08000000
   C     67.36000000    39.21000000    13.38000000
   C     67.86000000    37.87000000    13.90000000
   N     67.99000000    37.66000000    15.35000000
   H     64.65000000    43.10000000    12.49000000
   H     63.66000000    40.86000000    14.09000000
   H     66.39000000    41.67000000    13.25000000
   H     65.32000000    40.67000000    12.32000000
   H     65.33000000    38.86000000    13.82000000
   H     66.19000000    39.73000000    15.15000000
   H     68.09000000    40.01000000    13.27000000
   H     67.16000000    39.09000000    12.31000000
   H     68.89000000    37.79000000    13.57000000
   H     67.40000000    36.99000000    13.46000000
   H     68.67000000    36.94000000    15.52000000
   H     68.36000000    38.49000000    15.81000000
   H     67.13000000    37.44000000    15.82000000
   N     65.41000000    43.23000000    15.51000000
   C     65.70000000    43.88000000    16.78000000
   C     64.46000000    44.26000000    17.57000000
   O     64.46000000    44.24000000    18.80000000
   C     66.68000000    45.04000000    16.70000000
   C     68.15000000    44.62000000    16.58000000
   C     69.20000000    45.65000000    16.23000000
   O     69.11000000    46.12000000    15.07000000
   O     70.22000000    45.84000000    16.92000000
   H     65.54000000    43.84000000    14.71000000
   H     66.18000000    43.22000000    17.51000000
   H     66.51000000    45.66000000    17.58000000
   H     66.42000000    45.65000000    15.83000000
   H     68.22000000    43.83000000    15.84000000
   H     68.31000000    44.12000000    17.54000000
   N     63.49000000    44.77000000    16.81000000
   C     62.24000000    45.29000000    17.33000000
   H     61.45500000    44.54500000    17.19900000
   H     62.35300000    45.51600000    18.39000000
   H     61.97100000    46.19900000    16.79100000
   H     63.60000000    44.74000000    15.81000000
  Ca     71.46000000    47.24000000    14.93000000
   O     71.71000000    44.84000000    13.73000000
   H     72.03000000    44.93000000    12.83000000
   H     72.45000000    44.47000000    14.21000000
   O     70.72000000    47.74000000    12.31000000
   H     70.73000000    48.66000000    12.02000000
   H     70.84000000    47.24000000    11.51000000

Ca 1.70



