%chk=loop3.cluster105.chk
%nprocshared=48
%mem=10GB
%nosave
#b3lyp/svp scf=(tight,noincore) Test 
#IOP(5/87=12) Density=Current Pop=(MK,readradii) iop(6/33=2) iop(6/42=6)

loop3.cluster105 

   0  1 
   C     54.28000000    56.20000000    42.12000000
   C     54.94000000    56.21000000    43.49000000
   O     54.34000000    56.57000000    44.50000000
   H     53.38500000    56.82200000    42.14400000
   H     54.97500000    56.59300000    41.37800000
   H     54.00500000    55.17900000    41.85600000
   N     56.22000000    55.82000000    43.60000000
   C     57.00000000    55.67000000    44.81000000
   C     57.55000000    56.94000000    45.44000000
   O     58.73000000    57.02000000    45.78000000
   C     56.40000000    54.70000000    45.82000000
   C     56.06000000    53.31000000    45.31000000
   O     55.11000000    52.73000000    45.89000000
   O     56.70000000    52.75000000    44.39000000
   H     56.70000000    55.42000000    42.80000000
   H     57.85000000    55.07000000    44.50000000
   H     55.49000000    55.09000000    46.29000000
   H     57.08000000    54.49000000    46.64000000
   N     56.65000000    57.87000000    45.78000000
   C     56.96000000    59.06000000    46.55000000
   C     57.43000000    58.72000000    47.96000000
   O     58.06000000    59.57000000    48.58000000
   C     55.72000000    59.95000000    46.52000000
   C     54.65000000    59.59000000    47.55000000
   C     53.95000000    58.25000000    47.39000000
   C     52.70000000    57.99000000    48.22000000
   N     52.42000000    56.56000000    48.43000000
   H     55.73000000    57.64000000    45.41000000
   H     57.76000000    59.59000000    46.04000000
   H     55.34000000    59.96000000    45.50000000
   H     56.04000000    60.96000000    46.77000000
   H     53.87000000    60.35000000    47.48000000
   H     54.92000000    59.73000000    48.60000000
   H     54.68000000    57.46000000    47.59000000
   H     53.64000000    58.08000000    46.36000000
   H     51.86000000    58.55000000    47.79000000
   H     52.94000000    58.30000000    49.23000000
   H     52.39000000    55.99000000    47.60000000
   H     53.17000000    56.08000000    48.90000000
   H     51.61000000    56.30000000    48.97000000
   N     57.27000000    57.49000000    48.44000000
   C     57.65000000    57.04000000    49.76000000
   C     58.39000000    55.71000000    49.74000000
   O     58.06000000    54.78000000    49.00000000
   C     56.55000000    57.04000000    50.83000000
   C     55.16000000    56.64000000    50.37000000
   O     54.13000000    57.05000000    50.95000000
   O     54.95000000    55.83000000    49.45000000
   H     56.83000000    56.80000000    47.85000000
   H     58.35000000    57.75000000    50.20000000
   H     56.56000000    58.03000000    51.29000000
   H     56.91000000    56.33000000    51.57000000
   N     59.37000000    55.64000000    50.64000000
   C     60.34000000    54.55000000    50.71000000
   C     59.92000000    53.37000000    51.58000000
   O     60.58000000    52.34000000    51.50000000
   H     59.53000000    56.45000000    51.22000000
   H     61.24000000    55.02000000    51.11000000
   H     60.55000000    54.14000000    49.73000000
   N     58.76000000    53.40000000    52.23000000
   C     58.10000000    52.32000000    52.94000000
   C     57.50000000    51.24000000    52.05000000
   O     57.41000000    50.08000000    52.45000000
   C     56.95000000    53.02000000    53.67000000
   C     56.12000000    52.29000000    54.72000000
   N     56.73000000    51.32000000    55.41000000
   O     54.92000000    52.47000000    54.87000000
   H     58.34000000    54.31000000    52.12000000
   H     58.87000000    51.87000000    53.56000000
   H     56.31000000    53.40000000    52.87000000
   H     57.39000000    53.90000000    54.14000000
   H     57.73000000    51.28000000    55.34000000
   H     56.20000000    51.02000000    56.22000000
   N     57.08000000    51.67000000    50.85000000
   C     56.92000000    50.91000000    49.63000000
   C     55.81000000    49.87000000    49.59000000
   O     55.03000000    49.95000000    48.64000000
   H     56.98000000    52.68000000    50.80000000
   H     57.82000000    50.29000000    49.54000000
   H     56.94000000    51.56000000    48.76000000
   N     55.64000000    49.03000000    50.61000000
   C     54.83000000    47.83000000    50.73000000
   C     53.31000000    47.94000000    50.79000000
   O     52.72000000    46.86000000    50.80000000
   C     55.34000000    46.88000000    49.65000000
   C     56.83000000    46.63000000    49.59000000
   C     57.51000000    46.17000000    50.73000000
   C     57.46000000    46.65000000    48.35000000
   C     58.87000000    45.86000000    50.66000000
   C     58.76000000    46.15000000    48.24000000
   C     59.48000000    45.77000000    49.39000000
   O     60.79000000    45.40000000    49.43000000
   H     56.31000000    49.19000000    51.35000000
   H     55.17000000    47.46000000    51.70000000
   H     54.95000000    47.20000000    48.69000000
   H     54.79000000    45.96000000    49.86000000
   H     57.00000000    46.23000000    51.68000000
   H     56.86000000    46.95000000    47.50000000
   H     59.39000000    45.49000000    51.53000000
   H     59.25000000    46.04000000    47.28000000
   H     61.06000000    45.35000000    48.51000000
   N     52.69000000    49.11000000    50.63000000
   C     51.27000000    49.35000000    50.48000000
   C     50.38000000    48.92000000    51.64000000
   O     49.48000000    49.66000000    52.04000000
   C     50.80000000    48.74000000    49.16000000
   C     51.66000000    49.05000000    47.94000000
   C     49.36000000    49.14000000    48.86000000
   C     52.02000000    50.52000000    47.78000000
   H     53.28000000    49.93000000    50.56000000
   H     51.10000000    50.42000000    50.44000000
   H     50.76000000    47.66000000    49.32000000
   H     51.10000000    48.80000000    47.04000000
   H     52.46000000    48.31000000    47.92000000
   H     49.28000000    50.18000000    48.57000000
   H     48.99000000    48.53000000    48.03000000
   H     48.66000000    49.07000000    49.70000000
   H     52.43000000    50.93000000    48.71000000
   H     52.62000000    50.63000000    46.88000000
   H     51.07000000    51.06000000    47.70000000
   N     50.59000000    47.76000000    52.26000000
   C     49.78000000    47.18000000    53.32000000
   C     48.28000000    47.19000000    53.07000000
   O     47.51000000    47.60000000    53.94000000
   C     50.28000000    45.77000000    53.59000000
   O     49.84000000    44.86000000    52.60000000
   H     51.30000000    47.16000000    51.86000000
   H     50.01000000    47.68000000    54.26000000
   H     49.79000000    45.47000000    54.52000000
   H     51.36000000    45.76000000    53.70000000
   H     50.15000000    43.98000000    52.83000000
   N     47.83000000    46.97000000    51.83000000
   C     46.44000000    47.03000000    51.44000000
   C     45.86000000    48.41000000    51.70000000
   O     44.65000000    48.58000000    51.55000000
   C     45.72000000    45.79000000    51.95000000
   H     48.54000000    46.81000000    51.13000000
   H     46.50000000    46.97000000    50.35000000
   H     44.76000000    45.75000000    51.43000000
   H     46.33000000    44.90000000    51.82000000
   H     45.43000000    45.93000000    52.99000000
   N     46.63000000    49.45000000    52.04000000
   C     46.21000000    50.83000000    52.12000000
   C     46.46000000    51.73000000    50.92000000
   O     47.06000000    51.34000000    49.92000000
   C     46.64000000    51.50000000    53.43000000
   H     47.60000000    49.23000000    52.20000000
   H     45.12000000    50.86000000    52.12000000
   H     47.72000000    51.56000000    53.55000000
   H     46.31000000    52.54000000    53.45000000
   H     46.23000000    50.89000000    54.24000000
   N     45.93000000    52.96000000    51.00000000
   C     46.14000000    54.01000000    50.03000000
   C     45.83000000    53.85000000    48.55000000
   O     45.84000000    54.88000000    47.90000000
   C     47.38000000    54.84000000    50.35000000
   C     48.73000000    54.11000000    50.33000000
   C     49.76000000    55.05000000    50.92000000
   O     50.34000000    55.95000000    50.28000000
   O     49.94000000    54.91000000    52.15000000
   H     45.38000000    53.21000000    51.81000000
   H     45.41000000    54.75000000    50.37000000
   H     47.33000000    55.22000000    51.37000000
   H     47.47000000    55.72000000    49.72000000
   H     48.87000000    53.80000000    49.29000000
   H     48.62000000    53.26000000    50.99000000
   N     45.59000000    52.65000000    48.02000000
   C     45.12000000    52.42000000    46.66000000
   H     44.24700000    53.04400000    46.46700000
   H     45.91100000    52.67400000    45.95400000
   H     44.84900000    51.37100000    46.54100000
   H     45.69000000    51.87000000    48.65000000
  Ca     52.22000000    56.31000000    52.49000000
   O     51.68000000    55.45000000    55.04000000
   H     51.38000000    54.56000000    55.23000000
   H     51.77000000    55.87000000    55.90000000
   O     51.64000000    58.62000000    51.22000000
   H     51.28000000    59.12000000    50.49000000
   H     51.60000000    59.23000000    51.96000000
   O     53.47000000    58.07000000    53.91000000
   H     54.30000000    57.94000000    54.37000000
   H     53.35000000    59.02000000    53.88000000
   O     52.87000000    54.03000000    51.20000000
   H     53.06000000    53.17000000    51.58000000
   H     53.10000000    53.93000000    50.27000000
   O     50.22000000    57.75000000    53.76000000
   H     49.52000000    58.31000000    53.41000000
   H     50.26000000    57.99000000    54.69000000
   O     54.26000000    55.03000000    53.52000000
   H     55.09000000    55.37000000    53.85000000
   H     54.28000000    54.10000000    53.74000000

Ca 1.70



