%chk=CaMKII_loop3_88.0.chk
%nprocshared=48
%mem=10GB
%nosave
#b3lyp/svp scf=(tight,noincore) Test 
#IOP(5/87=12) Density=Current Pop=(MK,readradii) iop(6/33=2) iop(6/42=6)

CaMKII_loop3_88.0 

   0   1
   C     67.41000000    57.47000000    25.13000000
   C     66.55000000    57.64000000    26.38000000
   O     66.27000000    56.61000000    27.00000000
   H     68.39100000    57.08800000    25.41400000
   H     66.92900000    56.76700000    24.45000000
   H     67.52600000    58.43400000    24.63400000
   N     66.07000000    58.83000000    26.76000000
   C     65.33000000    59.11000000    27.97000000
   C     63.82000000    58.91000000    27.88000000
   O     62.97000000    59.78000000    27.77000000
   C     65.70000000    60.52000000    28.42000000
   C     65.28000000    60.88000000    29.84000000
   O     65.40000000    62.08000000    30.18000000
   O     64.81000000    60.01000000    30.60000000
   H     66.29000000    59.62000000    26.17000000
   H     65.76000000    58.44000000    28.71000000
   H     65.34000000    61.21000000    27.66000000
   H     66.79000000    60.55000000    28.41000000
   N     63.41000000    57.64000000    27.98000000
   C     62.06000000    57.12000000    27.91000000
   C     60.99000000    57.96000000    28.59000000
   O     59.83000000    57.91000000    28.19000000
   C     62.02000000    55.71000000    28.49000000
   C     60.63000000    55.19000000    28.82000000
   C     60.67000000    53.72000000    29.23000000
   C     59.43000000    53.35000000    30.03000000
   N     58.23000000    53.15000000    29.19000000
   H     64.16000000    56.99000000    28.17000000
   H     61.80000000    57.14000000    26.85000000
   H     62.57000000    55.81000000    29.43000000
   H     62.50000000    55.05000000    27.77000000
   H     60.07000000    55.33000000    27.89000000
   H     60.16000000    55.79000000    29.60000000
   H     61.49000000    53.60000000    29.94000000
   H     60.95000000    53.03000000    28.44000000
   H     59.21000000    54.16000000    30.72000000
   H     59.67000000    52.48000000    30.64000000
   H     58.34000000    52.50000000    28.43000000
   H     57.48000000    52.88000000    29.80000000
   H     57.96000000    54.01000000    28.73000000
   N     61.24000000    58.65000000    29.71000000
   C     60.33000000    59.18000000    30.70000000
   C     60.45000000    60.70000000    30.78000000
   O     59.58000000    61.34000000    31.36000000
   C     60.67000000    58.62000000    32.07000000
   C     62.17000000    58.52000000    32.27000000
   O     62.77000000    59.44000000    32.87000000
   O     62.75000000    57.50000000    31.82000000
   H     62.22000000    58.66000000    29.95000000
   H     59.29000000    58.99000000    30.44000000
   H     60.23000000    57.64000000    32.27000000
   H     60.35000000    59.27000000    32.88000000
   N     61.60000000    61.25000000    30.38000000
   C     61.92000000    62.66000000    30.39000000
   C     62.95000000    63.19000000    31.39000000
   O     63.14000000    64.40000000    31.33000000
   H     62.22000000    60.56000000    29.98000000
   H     61.07000000    63.22000000    30.78000000
   H     62.17000000    63.00000000    29.39000000
   N     63.42000000    62.42000000    32.37000000
   C     63.98000000    63.01000000    33.57000000
   C     65.28000000    63.79000000    33.52000000
   O     65.60000000    64.43000000    34.52000000
   C     63.89000000    62.07000000    34.77000000
   C     65.08000000    61.12000000    34.80000000
   N     65.39000000    60.70000000    36.03000000
   O     65.78000000    60.76000000    33.85000000
   H     63.26000000    61.43000000    32.29000000
   H     63.32000000    63.81000000    33.91000000
   H     62.98000000    61.47000000    34.70000000
   H     63.98000000    62.72000000    35.64000000
   H     64.80000000    61.07000000    36.77000000
   H     66.29000000    60.28000000    36.21000000
   N     65.98000000    63.79000000    32.38000000
   C     67.32000000    64.31000000    32.22000000
   C     68.40000000    63.24000000    32.31000000
   O     69.57000000    63.60000000    32.41000000
   H     65.60000000    63.27000000    31.60000000
   H     67.50000000    65.16000000    32.88000000
   H     67.39000000    64.81000000    31.26000000
   N     68.07000000    61.95000000    32.45000000
   C     68.99000000    60.87000000    32.71000000
   C     68.76000000    59.59000000    31.92000000
   O     67.58000000    59.30000000    31.71000000
   C     69.00000000    60.73000000    34.23000000
   C     69.46000000    61.91000000    35.05000000
   C     70.82000000    62.01000000    35.41000000
   C     68.56000000    62.92000000    35.39000000
   C     71.28000000    63.12000000    36.14000000
   C     69.03000000    64.06000000    36.05000000
   C     70.37000000    64.14000000    36.48000000
   O     70.85000000    65.17000000    37.23000000
   H     67.12000000    61.67000000    32.25000000
   H     69.98000000    61.23000000    32.41000000
   H     69.62000000    59.86000000    34.44000000
   H     68.04000000    60.39000000    34.62000000
   H     71.47000000    61.20000000    35.15000000
   H     67.53000000    62.90000000    35.06000000
   H     72.29000000    63.18000000    36.51000000
   H     68.30000000    64.81000000    36.32000000
   H     70.09000000    65.73000000    37.44000000
   N     69.84000000    58.89000000    31.56000000
   C     69.76000000    57.58000000    30.94000000
   C     70.37000000    56.57000000    31.91000000
   O     71.54000000    56.69000000    32.27000000
   C     70.44000000    57.57000000    29.57000000
   C     70.44000000    58.83000000    28.70000000
   C     69.78000000    56.49000000    28.71000000
   C     71.39000000    58.79000000    27.51000000
   H     70.74000000    59.28000000    31.79000000
   H     68.69000000    57.39000000    30.82000000
   H     71.48000000    57.27000000    29.68000000
   H     70.74000000    59.60000000    29.41000000
   H     69.43000000    59.10000000    28.41000000
   H     69.98000000    55.55000000    29.22000000
   H     68.73000000    56.71000000    28.51000000
   H     70.25000000    56.29000000    27.75000000
   H     71.37000000    59.73000000    26.96000000
   H     72.37000000    58.75000000    27.97000000
   H     71.34000000    57.94000000    26.83000000
   N     69.66000000    55.49000000    32.24000000
   C     70.17000000    54.25000000    32.78000000
   C     70.77000000    53.29000000    31.76000000
   O     70.44000000    53.30000000    30.58000000
   C     69.16000000    53.54000000    33.66000000
   O     68.15000000    52.95000000    32.87000000
   H     68.74000000    55.49000000    31.82000000
   H     71.01000000    54.46000000    33.45000000
   H     68.64000000    54.29000000    34.25000000
   H     69.67000000    52.76000000    34.22000000
   H     67.85000000    52.32000000    33.53000000
   N     71.66000000    52.37000000    32.16000000
   C     72.14000000    51.30000000    31.31000000
   C     71.02000000    50.44000000    30.75000000
   O     71.12000000    50.05000000    29.59000000
   C     73.15000000    50.39000000    32.00000000
   H     72.05000000    52.39000000    33.09000000
   H     72.62000000    51.75000000    30.44000000
   H     72.66000000    49.67000000    32.65000000
   H     73.55000000    49.78000000    31.19000000
   H     73.92000000    51.02000000    32.45000000
   N     69.87000000    50.29000000    31.41000000
   C     68.69000000    49.68000000    30.82000000
   C     67.99000000    50.57000000    29.81000000
   O     67.77000000    50.15000000    28.68000000
   C     67.72000000    49.35000000    31.95000000
   H     69.79000000    50.35000000    32.41000000
   H     69.04000000    48.76000000    30.35000000
   H     66.83000000    48.83000000    31.60000000
   H     68.34000000    48.80000000    32.66000000
   H     67.37000000    50.26000000    32.42000000
   N     67.85000000    51.87000000    30.08000000
   C     67.36000000    52.80000000    29.08000000
   C     68.29000000    52.97000000    27.89000000
   O     67.73000000    53.19000000    26.82000000
   C     67.19000000    54.18000000    29.71000000
   C     65.85000000    54.23000000    30.42000000
   C     65.62000000    55.60000000    31.05000000
   O     65.16000000    55.60000000    32.21000000
   O     65.97000000    56.67000000    30.50000000
   H     68.14000000    52.23000000    30.98000000
   H     66.44000000    52.43000000    28.63000000
   H     67.30000000    54.98000000    28.97000000
   H     67.90000000    54.31000000    30.52000000
   H     65.77000000    53.44000000    31.16000000
   H     65.05000000    54.08000000    29.69000000
   N     69.61000000    52.76000000    27.91000000
   C     70.54000000    52.61000000    26.81000000
   H     71.49100000    52.23500000    27.18800000
   H     70.13500000    51.90500000    26.08400000
   H     70.69600000    53.57600000    26.33100000
   H     69.96000000    52.69000000    28.85000000
  Ca     65.19000000    58.39000000    32.50000000
   O     66.97000000    57.41000000    34.15000000
   H     66.56000000    56.61000000    34.46000000
   H     67.61000000    57.63000000    34.84000000

Ca 1.70



