%chk=CaMKII_loop3_75.0.chk
%nprocshared=48
%mem=10GB
%nosave
#b3lyp/svp scf=(tight,noincore) Test 
#IOP(5/87=12) Density=Current Pop=(MK,readradii) iop(6/33=2) iop(6/42=6)

CaMKII_loop3_75.0 

   0   1
   C     67.28000000    46.42000000    25.40000000
   C     65.90000000    45.80000000    25.62000000
   O     65.75000000    44.70000000    26.14000000
   H     68.00100000    45.63200000    25.18100000
   H     67.23700000    47.11600000    24.56200000
   H     67.58700000    46.95300000    26.30000000
   N     64.84000000    46.56000000    25.35000000
   C     63.47000000    46.25000000    25.71000000
   C     63.04000000    45.19000000    24.70000000
   O     62.53000000    45.51000000    23.63000000
   C     62.55000000    47.47000000    25.71000000
   C     61.19000000    47.13000000    26.30000000
   O     61.09000000    46.07000000    26.96000000
   O     60.25000000    47.95000000    26.22000000
   H     65.06000000    47.50000000    25.05000000
   H     63.44000000    45.93000000    26.75000000
   H     62.47000000    47.96000000    24.74000000
   H     63.04000000    48.18000000    26.38000000
   N     63.20000000    43.92000000    25.05000000
   C     63.14000000    42.77000000    24.16000000
   C     61.74000000    42.47000000    23.65000000
   O     61.54000000    42.02000000    22.52000000
   C     63.71000000    41.54000000    24.87000000
   C     64.02000000    40.57000000    23.74000000
   C     64.63000000    39.37000000    24.46000000
   C     65.19000000    38.36000000    23.47000000
   N     65.74000000    37.22000000    24.21000000
   H     63.52000000    43.73000000    25.99000000
   H     63.65000000    42.99000000    23.22000000
   H     62.99000000    41.09000000    25.55000000
   H     64.70000000    41.79000000    25.23000000
   H     64.77000000    40.90000000    23.02000000
   H     63.14000000    40.23000000    23.20000000
   H     63.83000000    38.92000000    25.05000000
   H     65.43000000    39.72000000    25.12000000
   H     65.95000000    38.88000000    22.88000000
   H     64.43000000    37.97000000    22.79000000
   H     64.95000000    36.61000000    24.39000000
   H     66.33000000    36.63000000    23.63000000
   H     66.16000000    37.52000000    25.07000000
   N     60.74000000    42.89000000    24.43000000
   C     59.32000000    42.71000000    24.23000000
   C     58.57000000    44.02000000    24.01000000
   O     57.36000000    44.09000000    23.83000000
   C     58.79000000    41.81000000    25.35000000
   C     58.99000000    42.35000000    26.76000000
   O     58.64000000    41.52000000    27.62000000
   O     59.62000000    43.41000000    26.97000000
   H     61.00000000    43.26000000    25.33000000
   H     59.17000000    42.14000000    23.31000000
   H     59.35000000    40.88000000    25.21000000
   H     57.73000000    41.69000000    25.14000000
   N     59.31000000    45.13000000    24.04000000
   C     58.83000000    46.43000000    23.65000000
   C     57.66000000    46.87000000    24.52000000
   O     56.75000000    47.65000000    24.23000000
   H     60.30000000    45.04000000    24.21000000
   H     58.50000000    46.35000000    22.61000000
   H     59.60000000    47.20000000    23.75000000
   N     57.66000000    46.41000000    25.77000000
   C     56.69000000    46.70000000    26.82000000
   C     56.80000000    48.03000000    27.55000000
   O     55.90000000    48.30000000    28.35000000
   C     56.56000000    45.50000000    27.75000000
   C     57.43000000    45.58000000    29.00000000
   N     56.83000000    45.62000000    30.19000000
   O     58.66000000    45.57000000    28.93000000
   H     58.37000000    45.76000000    26.08000000
   H     55.71000000    46.79000000    26.35000000
   H     56.82000000    44.58000000    27.24000000
   H     55.49000000    45.42000000    27.95000000
   H     55.82000000    45.71000000    30.20000000
   H     57.34000000    45.48000000    31.05000000
   N     57.80000000    48.84000000    27.21000000
   C     58.10000000    50.09000000    27.89000000
   C     58.93000000    49.90000000    29.15000000
   O     59.04000000    50.94000000    29.79000000
   H     58.45000000    48.53000000    26.50000000
   H     57.12000000    50.52000000    28.12000000
   H     58.60000000    50.71000000    27.15000000
   N     59.67000000    48.84000000    29.46000000
   C     60.53000000    48.74000000    30.63000000
   C     61.80000000    47.94000000    30.41000000
   O     61.68000000    46.87000000    29.80000000
   C     59.72000000    47.91000000    31.62000000
   C     59.04000000    48.73000000    32.70000000
   C     59.77000000    49.70000000    33.40000000
   C     57.79000000    48.34000000    33.18000000
   C     59.21000000    50.31000000    34.53000000
   C     57.25000000    48.87000000    34.37000000
   C     57.99000000    49.84000000    35.06000000
   O     57.55000000    50.30000000    36.27000000
   H     59.59000000    48.06000000    28.82000000
   H     60.81000000    49.72000000    31.00000000
   H     60.35000000    47.12000000    32.02000000
   H     58.97000000    47.34000000    31.08000000
   H     60.72000000    49.95000000    32.98000000
   H     57.21000000    47.53000000    32.77000000
   H     59.76000000    51.06000000    35.07000000
   H     56.38000000    48.46000000    34.87000000
   H     56.60000000    50.30000000    36.41000000
   N     62.97000000    48.32000000    30.94000000
   C     64.22000000    47.62000000    30.74000000
   C     64.43000000    46.86000000    32.05000000
   O     64.56000000    47.49000000    33.10000000
   C     65.35000000    48.58000000    30.39000000
   C     65.22000000    49.07000000    28.95000000
   C     66.63000000    47.77000000    30.56000000
   C     66.28000000    50.07000000    28.52000000
   H     63.04000000    49.22000000    31.40000000
   H     64.22000000    46.89000000    29.93000000
   H     65.37000000    49.44000000    31.07000000
   H     64.18000000    49.40000000    28.90000000
   H     65.26000000    48.18000000    28.33000000
   H     66.79000000    47.36000000    31.56000000
   H     66.62000000    46.99000000    29.79000000
   H     67.50000000    48.40000000    30.37000000
   H     67.26000000    49.59000000    28.52000000
   H     66.10000000    50.62000000    27.59000000
   H     66.34000000    50.81000000    29.32000000
   N     64.60000000    45.55000000    31.93000000
   C     64.94000000    44.77000000    33.11000000
   C     66.43000000    44.48000000    33.26000000
   O     67.25000000    44.80000000    32.41000000
   C     63.98000000    43.58000000    33.11000000
   O     64.56000000    42.54000000    32.36000000
   H     64.62000000    45.03000000    31.06000000
   H     64.64000000    45.29000000    34.02000000
   H     62.97000000    43.80000000    32.76000000
   H     63.78000000    43.12000000    34.08000000
   H     63.84000000    42.10000000    31.89000000
   N     66.87000000    43.89000000    34.38000000
   C     68.22000000    43.41000000    34.54000000
   C     68.61000000    42.27000000    33.60000000
   O     69.74000000    42.16000000    33.13000000
   C     68.41000000    42.97000000    35.99000000
   H     66.25000000    43.71000000    35.15000000
   H     68.91000000    44.22000000    34.28000000
   H     67.71000000    42.20000000    36.31000000
   H     69.47000000    42.75000000    36.10000000
   H     68.16000000    43.78000000    36.68000000
   N     67.62000000    41.44000000    33.27000000
   C     67.64000000    40.32000000    32.36000000
   C     67.90000000    40.69000000    30.91000000
   O     68.48000000    39.93000000    30.13000000
   C     66.29000000    39.63000000    32.22000000
   H     66.77000000    41.58000000    33.80000000
   H     68.36000000    39.59000000    32.72000000
   H     66.39000000    38.79000000    31.52000000
   H     66.01000000    39.38000000    33.24000000
   H     65.52000000    40.35000000    31.97000000
   N     67.47000000    41.91000000    30.57000000
   C     67.54000000    42.49000000    29.25000000
   C     68.79000000    43.33000000    29.06000000
   O     69.43000000    43.23000000    28.01000000
   C     66.32000000    43.37000000    29.02000000
   C     65.10000000    42.47000000    28.82000000
   C     63.85000000    43.30000000    28.59000000
   O     62.84000000    42.85000000    28.00000000
   O     63.65000000    44.45000000    29.02000000
   H     66.92000000    42.30000000    31.32000000
   H     67.61000000    41.69000000    28.51000000
   H     66.52000000    43.95000000    28.11000000
   H     66.09000000    44.05000000    29.84000000
   H     65.08000000    41.76000000    29.65000000
   H     65.21000000    41.96000000    27.86000000
   N     69.36000000    43.88000000    30.13000000
   C     70.71000000    44.43000000    30.14000000
   H     71.38100000    43.75300000    29.61200000
   H     70.71100000    45.40100000    29.64500000
   H     71.04800000    44.54600000    31.17000000
   H     68.78000000    43.78000000    30.95000000
  Ca     61.04000000    44.52000000    28.86000000
   O     59.82000000    42.33000000    29.94000000
   H     59.38000000    42.00000000    29.16000000
   H     59.14000000    42.38000000    30.61000000

Ca 1.70



