%chk=CaMKII_loop3_64.0.chk
%nprocshared=48
%mem=10GB
%nosave
#b3lyp/svp scf=(tight,noincore) Test 
#IOP(5/87=12) Density=Current Pop=(MK,readradii) iop(6/33=2) iop(6/42=6)

CaMKII_loop3_64.0 

   0   1
   C     71.17000000    49.36000000    35.68000000
   C     70.23000000    48.84000000    36.76000000
   O     70.41000000    47.73000000    37.25000000
   H     72.13000000    48.84900000    35.75800000
   H     70.73700000    49.17000000    34.69800000
   H     71.31800000    50.43200000    35.81100000
   N     69.33000000    49.71000000    37.22000000
   C     68.27000000    49.39000000    38.17000000
   C     67.23000000    48.47000000    37.56000000
   O     66.23000000    48.93000000    37.02000000
   C     67.72000000    50.69000000    38.75000000
   C     66.78000000    50.35000000    39.89000000
   O     66.62000000    49.20000000    40.34000000
   O     66.24000000    51.27000000    40.56000000
   H     69.40000000    50.67000000    36.92000000
   H     68.83000000    48.79000000    38.88000000
   H     67.24000000    51.34000000    38.02000000
   H     68.58000000    51.22000000    39.15000000
   N     67.54000000    47.17000000    37.46000000
   C     66.85000000    46.17000000    36.68000000
   C     65.40000000    45.91000000    37.05000000
   O     64.55000000    45.63000000    36.21000000
   C     67.69000000    44.91000000    36.89000000
   C     67.13000000    43.68000000    36.18000000
   C     68.07000000    42.49000000    36.26000000
   C     69.28000000    42.76000000    35.38000000
   N     70.15000000    41.58000000    35.24000000
   H     68.43000000    46.90000000    37.85000000
   H     66.83000000    46.54000000    35.65000000
   H     67.69000000    44.71000000    37.96000000
   H     68.72000000    45.16000000    36.61000000
   H     66.87000000    43.89000000    35.14000000
   H     66.32000000    43.43000000    36.88000000
   H     67.45000000    41.69000000    35.87000000
   H     68.30000000    42.26000000    37.30000000
   H     69.81000000    43.64000000    35.77000000
   H     68.97000000    43.14000000    34.40000000
   H     69.55000000    40.79000000    35.05000000
   H     70.81000000    41.53000000    34.48000000
   H     70.56000000    41.44000000    36.15000000
   N     65.03000000    46.21000000    38.30000000
   C     63.73000000    46.11000000    38.94000000
   C     63.15000000    47.45000000    39.36000000
   O     62.03000000    47.45000000    39.86000000
   C     63.79000000    45.15000000    40.13000000
   C     64.72000000    45.55000000    41.27000000
   O     65.62000000    46.40000000    41.07000000
   O     64.78000000    44.79000000    42.26000000
   H     65.79000000    46.60000000    38.84000000
   H     62.94000000    45.79000000    38.26000000
   H     64.03000000    44.16000000    39.75000000
   H     62.78000000    45.13000000    40.53000000
   N     63.89000000    48.53000000    39.08000000
   C     63.38000000    49.88000000    39.22000000
   C     62.91000000    50.13000000    40.65000000
   O     61.76000000    50.49000000    40.90000000
   H     64.80000000    48.44000000    38.65000000
   H     62.52000000    50.15000000    38.61000000
   H     64.19000000    50.55000000    38.95000000
   N     63.80000000    49.94000000    41.63000000
   C     63.48000000    50.14000000    43.03000000
   C     64.11000000    51.41000000    43.59000000
   O     64.00000000    51.60000000    44.80000000
   C     63.93000000    48.83000000    43.68000000
   C     65.32000000    48.89000000    44.30000000
   N     65.52000000    48.61000000    45.59000000
   O     66.30000000    49.12000000    43.60000000
   H     64.73000000    49.63000000    41.38000000
   H     62.42000000    50.29000000    43.24000000
   H     63.82000000    47.98000000    43.01000000
   H     63.16000000    48.46000000    44.36000000
   H     64.70000000    48.41000000    46.13000000
   H     66.41000000    48.17000000    45.79000000
   N     64.79000000    52.18000000    42.74000000
   C     65.60000000    53.36000000    43.01000000
   C     67.05000000    53.05000000    43.36000000
   O     67.70000000    53.97000000    43.84000000
   H     64.99000000    51.75000000    41.85000000
   H     65.16000000    53.98000000    43.79000000
   H     65.54000000    54.09000000    42.21000000
   N     67.54000000    51.81000000    43.26000000
   C     68.87000000    51.44000000    43.72000000
   C     69.72000000    50.63000000    42.75000000
   O     69.09000000    49.81000000    42.08000000
   C     68.78000000    50.68000000    45.04000000
   C     68.67000000    51.55000000    46.27000000
   C     69.85000000    51.95000000    46.91000000
   C     67.40000000    52.00000000    46.67000000
   C     69.73000000    52.78000000    48.03000000
   C     67.28000000    52.85000000    47.77000000
   C     68.46000000    53.24000000    48.43000000
   O     68.30000000    54.10000000    49.48000000
   H     66.90000000    51.11000000    42.92000000
   H     69.42000000    52.36000000    43.91000000
   H     69.64000000    50.03000000    45.20000000
   H     67.89000000    50.06000000    44.98000000
   H     70.77000000    51.42000000    46.69000000
   H     66.53000000    51.64000000    46.15000000
   H     70.66000000    52.98000000    48.53000000
   H     66.34000000    53.39000000    47.83000000
   H     67.41000000    54.47000000    49.58000000
   N     71.05000000    50.63000000    42.83000000
   C     72.01000000    49.74000000    42.21000000
   C     72.82000000    49.04000000    43.28000000
   O     73.31000000    49.58000000    44.27000000
   C     72.85000000    50.56000000    41.23000000
   C     72.01000000    51.02000000    40.05000000
   C     74.09000000    49.85000000    40.70000000
   C     72.68000000    52.15000000    39.26000000
   H     71.49000000    51.09000000    43.62000000
   H     71.51000000    48.95000000    41.65000000
   H     73.25000000    51.46000000    41.70000000
   H     71.03000000    51.40000000    40.35000000
   H     71.84000000    50.14000000    39.43000000
   H     73.78000000    48.86000000    40.37000000
   H     74.58000000    50.38000000    39.88000000
   H     74.87000000    49.83000000    41.46000000
   H     72.01000000    52.47000000    38.46000000
   H     72.82000000    52.97000000    39.97000000
   H     73.66000000    51.96000000    38.84000000
   N     73.07000000    47.75000000    43.01000000
   C     74.08000000    46.91000000    43.62000000
   C     75.12000000    46.40000000    42.63000000
   O     75.09000000    46.61000000    41.42000000
   C     73.44000000    45.74000000    44.36000000
   O     72.31000000    45.22000000    43.70000000
   H     72.74000000    47.43000000    42.11000000
   H     74.61000000    47.49000000    44.38000000
   H     73.18000000    46.12000000    45.34000000
   H     74.12000000    44.91000000    44.54000000
   H     71.90000000    44.56000000    44.26000000
   N     76.13000000    45.70000000    43.16000000
   C     77.23000000    45.18000000    42.38000000
   C     76.86000000    44.25000000    41.24000000
   O     77.22000000    44.51000000    40.09000000
   C     78.16000000    44.55000000    43.42000000
   H     76.06000000    45.37000000    44.12000000
   H     77.75000000    45.97000000    41.85000000
   H     79.06000000    44.34000000    42.84000000
   H     78.47000000    45.32000000    44.13000000
   H     77.81000000    43.62000000    43.86000000
   N     76.10000000    43.19000000    41.51000000
   C     75.66000000    42.30000000    40.45000000
   C     74.71000000    42.90000000    39.43000000
   O     74.78000000    42.48000000    38.27000000
   C     74.93000000    41.14000000    41.13000000
   H     75.92000000    42.95000000    42.48000000
   H     76.57000000    41.87000000    40.02000000
   H     74.28000000    40.62000000    40.43000000
   H     75.59000000    40.39000000    41.56000000
   H     74.24000000    41.51000000    41.88000000
   N     73.84000000    43.84000000    39.79000000
   C     73.06000000    44.64000000    38.86000000
   C     74.03000000    45.34000000    37.93000000
   O     73.86000000    45.24000000    36.72000000
   C     72.23000000    45.60000000    39.71000000
   C     70.91000000    44.97000000    40.12000000
   C     69.81000000    45.95000000    40.51000000
   O     70.01000000    47.16000000    40.77000000
   O     68.63000000    45.55000000    40.57000000
   H     73.61000000    44.06000000    40.75000000
   H     72.33000000    44.08000000    38.28000000
   H     71.96000000    46.42000000    39.04000000
   H     72.81000000    45.98000000    40.55000000
   H     70.99000000    44.22000000    40.91000000
   H     70.52000000    44.38000000    39.28000000
   N     75.02000000    46.06000000    38.48000000
   C     75.98000000    46.73000000    37.62000000
   H     76.91800000    46.17400000    37.62100000
   H     75.58700000    46.77800000    36.60400000
   H     76.15700000    47.74000000    37.99000000
   H     75.07000000    46.06000000    39.49000000
  Ca     67.74000000    47.53000000    41.96000000
   O     66.86000000    45.79000000    43.69000000
   H     67.32000000    45.12000000    44.21000000
   H     66.21000000    45.29000000    43.19000000

Ca 1.70



