%chk=CaMKII_loop3_78.0.chk
%nprocshared=48
%mem=10GB
%nosave
#b3lyp/svp scf=(tight,noincore) Test 
#IOP(5/87=12) Density=Current Pop=(MK,readradii) iop(6/33=2) iop(6/42=6)

CaMKII_loop3_78.0 

   0   1
   C     67.45000000    46.09000000    29.68000000
   C     66.39000000    45.42000000    30.55000000
   O     66.71000000    44.51000000    31.30000000
   H     68.37100000    45.50800000    29.71800000
   H     67.09600000    46.14300000    28.65000000
   H     67.64200000    47.09700000    30.05100000
   N     65.15000000    45.90000000    30.54000000
   C     64.00000000    45.19000000    31.05000000
   C     63.68000000    44.08000000    30.06000000
   O     63.55000000    44.37000000    28.87000000
   C     62.87000000    46.21000000    31.14000000
   C     61.63000000    45.73000000    31.88000000
   O     61.54000000    44.49000000    32.05000000
   O     60.75000000    46.55000000    32.21000000
   H     64.99000000    46.72000000    29.96000000
   H     64.18000000    44.87000000    32.07000000
   H     62.53000000    46.45000000    30.13000000
   H     63.26000000    47.11000000    31.62000000
   N     63.65000000    42.85000000    30.59000000
   C     63.35000000    41.71000000    29.76000000
   C     61.89000000    41.60000000    29.34000000
   O     61.57000000    40.94000000    28.36000000
   C     63.80000000    40.44000000    30.48000000
   C     63.81000000    39.10000000    29.75000000
   C     64.44000000    38.00000000    30.60000000
   C     64.29000000    36.56000000    30.11000000
   N     64.72000000    35.67000000    31.20000000
   H     63.75000000    42.72000000    31.59000000
   H     63.92000000    41.80000000    28.84000000
   H     63.14000000    40.26000000    31.33000000
   H     64.78000000    40.68000000    30.91000000
   H     64.50000000    39.25000000    28.91000000
   H     62.87000000    38.67000000    29.40000000
   H     64.05000000    38.12000000    31.61000000
   H     65.50000000    38.24000000    30.74000000
   H     64.87000000    36.33000000    29.22000000
   H     63.21000000    36.48000000    29.98000000
   H     64.67000000    34.72000000    30.86000000
   H     65.71000000    35.77000000    31.35000000
   H     64.28000000    35.72000000    32.11000000
   N     60.96000000    42.12000000    30.14000000
   C     59.52000000    41.94000000    30.04000000
   C     58.74000000    43.24000000    29.94000000
   O     57.66000000    43.18000000    29.36000000
   C     58.95000000    41.12000000    31.19000000
   C     59.53000000    41.66000000    32.49000000
   O     60.45000000    40.98000000    32.98000000
   O     59.23000000    42.77000000    32.99000000
   H     61.30000000    42.65000000    30.93000000
   H     59.35000000    41.48000000    29.06000000
   H     59.33000000    40.12000000    30.97000000
   H     57.88000000    40.95000000    31.22000000
   N     59.15000000    44.36000000    30.53000000
   C     58.51000000    45.64000000    30.31000000
   C     57.64000000    46.14000000    31.44000000
   O     56.76000000    46.99000000    31.28000000
   H     59.97000000    44.36000000    31.14000000
   H     57.84000000    45.60000000    29.45000000
   H     59.31000000    46.37000000    30.19000000
   N     57.95000000    45.67000000    32.65000000
   C     57.24000000    46.03000000    33.86000000
   C     57.71000000    47.33000000    34.51000000
   O     57.22000000    47.83000000    35.52000000
   C     57.20000000    44.85000000    34.82000000
   C     58.50000000    44.73000000    35.62000000
   N     58.34000000    44.61000000    36.94000000
   O     59.62000000    44.76000000    35.12000000
   H     58.76000000    45.07000000    32.73000000
   H     56.18000000    46.21000000    33.66000000
   H     57.00000000    43.91000000    34.30000000
   H     56.42000000    45.08000000    35.54000000
   H     57.43000000    44.79000000    37.33000000
   H     59.10000000    44.36000000    37.56000000
   N     58.71000000    47.96000000    33.89000000
   C     59.25000000    49.24000000    34.29000000
   C     60.49000000    49.17000000    35.17000000
   O     60.92000000    50.09000000    35.87000000
   H     59.17000000    47.31000000    33.27000000
   H     58.51000000    49.90000000    34.74000000
   H     59.53000000    49.80000000    33.40000000
   N     61.11000000    48.00000000    35.23000000
   C     62.05000000    47.52000000    36.23000000
   C     63.11000000    46.56000000    35.72000000
   O     62.86000000    45.63000000    34.95000000
   C     61.45000000    46.79000000    37.42000000
   C     60.71000000    47.64000000    38.42000000
   C     61.35000000    48.21000000    39.53000000
   C     59.33000000    47.76000000    38.27000000
   C     60.58000000    48.88000000    40.50000000
   C     58.56000000    48.46000000    39.21000000
   C     59.19000000    49.01000000    40.35000000
   O     58.41000000    49.63000000    41.28000000
   H     60.78000000    47.33000000    34.54000000
   H     62.45000000    48.34000000    36.83000000
   H     62.33000000    46.41000000    37.94000000
   H     60.92000000    45.90000000    37.08000000
   H     62.41000000    48.20000000    39.70000000
   H     58.85000000    47.20000000    37.48000000
   H     61.10000000    49.29000000    41.35000000
   H     57.48000000    48.44000000    39.19000000
   H     57.50000000    49.62000000    40.98000000
   N     64.33000000    46.88000000    36.16000000
   C     65.49000000    46.10000000    35.78000000
   C     65.84000000    45.30000000    37.03000000
   O     65.71000000    45.67000000    38.19000000
   C     66.67000000    46.95000000    35.31000000
   C     66.37000000    47.71000000    34.02000000
   C     67.87000000    46.07000000    34.99000000
   C     67.30000000    48.87000000    33.65000000
   H     64.48000000    47.64000000    36.81000000
   H     65.30000000    45.45000000    34.92000000
   H     66.96000000    47.59000000    36.14000000
   H     65.43000000    48.25000000    33.95000000
   H     66.36000000    46.99000000    33.21000000
   H     68.38000000    45.70000000    35.89000000
   H     67.57000000    45.18000000    34.43000000
   H     68.69000000    46.67000000    34.60000000
   H     67.18000000    49.69000000    34.35000000
   H     68.35000000    48.61000000    33.75000000
   H     67.03000000    49.21000000    32.65000000
   N     66.56000000    44.19000000    36.88000000
   C     67.03000000    43.30000000    37.92000000
   C     68.21000000    42.51000000    37.38000000
   O     68.47000000    42.52000000    36.18000000
   C     65.98000000    42.31000000    38.40000000
   O     65.32000000    41.68000000    37.33000000
   H     66.62000000    43.84000000    35.93000000
   H     67.43000000    43.91000000    38.74000000
   H     65.29000000    42.88000000    39.03000000
   H     66.47000000    41.57000000    39.04000000
   H     64.81000000    40.93000000    37.63000000
   N     68.97000000    41.87000000    38.27000000
   C     70.26000000    41.31000000    37.91000000
   C     70.31000000    40.21000000    36.86000000
   O     71.16000000    40.28000000    35.97000000
   C     70.81000000    40.82000000    39.24000000
   H     68.72000000    41.99000000    39.24000000
   H     70.87000000    42.16000000    37.60000000
   H     70.66000000    41.60000000    39.99000000
   H     70.40000000    39.85000000    39.55000000
   H     71.89000000    40.79000000    39.20000000
   N     69.32000000    39.32000000    36.81000000
   C     69.12000000    38.29000000    35.81000000
   C     68.74000000    38.82000000    34.43000000
   O     69.10000000    38.14000000    33.46000000
   C     68.04000000    37.33000000    36.31000000
   H     68.75000000    39.16000000    37.62000000
   H     70.02000000    37.68000000    35.81000000
   H     67.75000000    36.72000000    35.45000000
   H     68.35000000    36.66000000    37.11000000
   H     67.16000000    37.89000000    36.62000000
   N     68.18000000    40.02000000    34.39000000
   C     67.89000000    40.77000000    33.18000000
   C     69.01000000    41.67000000    32.70000000
   O     69.31000000    41.62000000    31.51000000
   C     66.55000000    41.47000000    33.43000000
   C     65.41000000    40.59000000    33.92000000
   C     64.12000000    41.39000000    33.99000000
   O     63.17000000    40.99000000    34.69000000
   O     63.87000000    42.45000000    33.37000000
   H     68.14000000    40.57000000    35.23000000
   H     67.76000000    40.04000000    32.38000000
   H     66.32000000    41.87000000    32.44000000
   H     66.68000000    42.32000000    34.10000000
   H     65.69000000    40.37000000    34.95000000
   H     65.26000000    39.71000000    33.30000000
   N     69.81000000    42.30000000    33.57000000
   C     71.00000000    43.02000000    33.15000000
   H     71.82400000    42.31800000    33.02600000
   H     70.80600000    43.52200000    32.20200000
   H     71.26400000    43.75900000    33.90600000
   H     69.51000000    42.24000000    34.53000000
  Ca     61.66000000    43.21000000    34.27000000
   O     60.34000000    41.86000000    36.32000000
   H     59.48000000    41.65000000    36.69000000
   H     60.90000000    42.03000000    37.09000000

Ca 1.70



