%chk=CaMKII_loop3_87.0.chk
%nprocshared=48
%mem=10GB
%nosave
#b3lyp/svp scf=(tight,noincore) Test 
#IOP(5/87=12) Density=Current Pop=(MK,readradii) iop(6/33=2) iop(6/42=6)

CaMKII_loop3_87.0 

   0   1
   C     77.33000000    53.45000000    31.15000000
   C     76.55000000    52.93000000    32.35000000
   O     77.09000000    51.96000000    32.88000000
   H     78.32300000    53.00100000    31.14100000
   H     76.80400000    53.18700000    30.23200000
   H     77.42300000    54.53400000    31.21800000
   N     75.31000000    53.32000000    32.64000000
   C     74.37000000    52.69000000    33.56000000
   C     73.71000000    51.50000000    32.90000000
   O     73.01000000    51.50000000    31.89000000
   C     73.32000000    53.67000000    34.08000000
   C     72.27000000    53.12000000    35.03000000
   O     72.33000000    51.96000000    35.48000000
   O     71.34000000    53.92000000    35.26000000
   H     74.88000000    54.02000000    32.06000000
   H     75.00000000    52.38000000    34.39000000
   H     72.74000000    54.06000000    33.25000000
   H     73.82000000    54.48000000    34.62000000
   N     74.04000000    50.31000000    33.40000000
   C     73.69000000    49.07000000    32.73000000
   C     72.21000000    48.73000000    32.84000000
   O     71.72000000    48.28000000    31.81000000
   C     74.60000000    47.98000000    33.29000000
   C     74.38000000    46.61000000    32.64000000
   C     75.38000000    45.62000000    33.23000000
   C     75.35000000    44.30000000    32.47000000
   N     76.19000000    43.29000000    33.12000000
   H     74.65000000    50.34000000    34.21000000
   H     73.94000000    49.18000000    31.68000000
   H     74.42000000    47.84000000    34.35000000
   H     75.66000000    48.22000000    33.28000000
   H     74.56000000    46.65000000    31.57000000
   H     73.36000000    46.31000000    32.88000000
   H     75.13000000    45.47000000    34.28000000
   H     76.40000000    46.01000000    33.22000000
   H     75.73000000    44.44000000    31.45000000
   H     74.41000000    43.75000000    32.44000000
   H     76.10000000    42.38000000    32.69000000
   H     77.18000000    43.50000000    33.13000000
   H     75.85000000    43.19000000    34.07000000
   N     71.57000000    48.94000000    34.00000000
   C     70.19000000    48.58000000    34.24000000
   C     69.21000000    49.73000000    34.11000000
   O     68.00000000    49.53000000    33.98000000
   C     70.01000000    47.86000000    35.58000000
   C     70.51000000    48.56000000    36.83000000
   O     71.68000000    49.00000000    36.97000000
   O     69.62000000    48.74000000    37.68000000
   H     72.16000000    49.29000000    34.74000000
   H     69.76000000    47.88000000    33.52000000
   H     70.53000000    46.91000000    35.51000000
   H     69.01000000    47.43000000    35.70000000
   N     69.68000000    50.98000000    34.01000000
   C     68.80000000    52.12000000    33.90000000
   C     68.25000000    52.71000000    35.20000000
   O     67.09000000    53.10000000    35.19000000
   H     70.67000000    51.13000000    33.91000000
   H     67.90000000    51.84000000    33.36000000
   H     69.19000000    52.87000000    33.22000000
   N     69.04000000    52.81000000    36.27000000
   C     68.64000000    53.21000000    37.61000000
   C     68.87000000    54.68000000    37.93000000
   O     68.26000000    55.20000000    38.87000000
   C     69.25000000    52.24000000    38.61000000
   C     70.55000000    52.77000000    39.20000000
   N     70.60000000    52.93000000    40.52000000
   O     71.56000000    52.77000000    38.50000000
   H     70.02000000    52.63000000    36.11000000
   H     67.57000000    53.06000000    37.74000000
   H     69.44000000    51.21000000    38.30000000
   H     68.58000000    52.05000000    39.45000000
   H     69.79000000    52.73000000    41.09000000
   H     71.52000000    52.88000000    40.94000000
   N     69.79000000    55.28000000    37.18000000
   C     70.24000000    56.66000000    37.23000000
   C     71.70000000    56.75000000    37.64000000
   O     72.23000000    57.84000000    37.87000000
   H     70.20000000    54.78000000    36.40000000
   H     69.76000000    57.19000000    38.06000000
   H     69.97000000    57.08000000    36.27000000
   N     72.43000000    55.65000000    37.81000000
   C     73.74000000    55.49000000    38.41000000
   C     74.65000000    54.48000000    37.72000000
   O     74.31000000    53.34000000    37.40000000
   C     73.76000000    55.20000000    39.91000000
   C     73.04000000    56.25000000    40.73000000
   C     73.89000000    57.12000000    41.43000000
   C     71.66000000    56.37000000    40.89000000
   C     73.40000000    58.09000000    42.31000000
   C     71.14000000    57.39000000    41.70000000
   C     72.00000000    58.22000000    42.45000000
   O     71.38000000    59.09000000    43.28000000
   H     71.93000000    54.79000000    37.68000000
   H     74.26000000    56.44000000    38.33000000
   H     74.80000000    55.06000000    40.20000000
   H     73.22000000    54.25000000    40.00000000
   H     74.96000000    57.00000000    41.35000000
   H     71.04000000    55.66000000    40.35000000
   H     74.13000000    58.63000000    42.90000000
   H     70.07000000    57.53000000    41.76000000
   H     70.43000000    58.96000000    43.28000000
   N     75.93000000    54.85000000    37.66000000
   C     76.97000000    53.96000000    37.17000000
   C     77.84000000    53.51000000    38.33000000
   O     78.41000000    54.34000000    39.04000000
   C     77.79000000    54.68000000    36.11000000
   C     77.10000000    55.64000000    35.15000000
   C     78.75000000    53.73000000    35.40000000
   C     78.11000000    56.67000000    34.64000000
   H     76.21000000    55.81000000    37.83000000
   H     76.60000000    53.05000000    36.69000000
   H     78.47000000    55.28000000    36.72000000
   H     76.23000000    56.18000000    35.56000000
   H     76.63000000    55.11000000    34.33000000
   H     79.34000000    54.21000000    34.62000000
   H     79.49000000    53.34000000    36.10000000
   H     78.16000000    52.95000000    34.93000000
   H     78.08000000    57.55000000    35.29000000
   H     79.10000000    56.22000000    34.60000000
   H     77.83000000    56.97000000    33.64000000
   N     77.97000000    52.19000000    38.49000000
   C     78.96000000    51.51000000    39.29000000
   C     80.10000000    50.89000000    38.49000000
   O     80.05000000    50.69000000    37.28000000
   C     78.29000000    50.49000000    40.22000000
   O     78.04000000    49.37000000    39.41000000
   H     77.32000000    51.57000000    38.03000000
   H     79.40000000    52.25000000    39.96000000
   H     77.33000000    50.78000000    40.65000000
   H     79.04000000    50.25000000    40.97000000
   H     77.28000000    49.47000000    38.82000000
   N     81.23000000    50.58000000    39.13000000
   C     82.45000000    50.24000000    38.43000000
   C     82.33000000    49.09000000    37.43000000
   O     82.79000000    49.22000000    36.30000000
   C     83.56000000    50.09000000    39.46000000
   H     81.30000000    50.71000000    40.13000000
   H     82.65000000    51.16000000    37.90000000
   H     83.63000000    50.97000000    40.11000000
   H     83.39000000    49.26000000    40.16000000
   H     84.44000000    50.10000000    38.83000000
   N     81.75000000    47.96000000    37.84000000
   C     81.51000000    46.83000000    36.97000000
   C     80.65000000    47.21000000    35.77000000
   O     80.76000000    46.57000000    34.72000000
   C     80.72000000    45.77000000    37.74000000
   H     81.40000000    47.95000000    38.79000000
   H     82.37000000    46.31000000    36.54000000
   H     81.36000000    45.49000000    38.58000000
   H     79.76000000    46.08000000    38.14000000
   H     80.43000000    44.97000000    37.06000000
   N     79.84000000    48.26000000    35.85000000
   C     79.07000000    48.75000000    34.73000000
   C     79.91000000    49.52000000    33.71000000
   O     79.58000000    49.39000000    32.53000000
   C     77.83000000    49.52000000    35.16000000
   C     76.90000000    48.81000000    36.14000000
   C     75.87000000    49.76000000    36.73000000
   O     75.98000000    50.19000000    37.90000000
   O     74.86000000    50.08000000    36.06000000
   H     79.66000000    48.66000000    36.76000000
   H     78.78000000    47.85000000    34.18000000
   H     77.20000000    49.67000000    34.28000000
   H     78.12000000    50.48000000    35.60000000
   H     77.51000000    48.42000000    36.96000000
   H     76.40000000    48.07000000    35.53000000
   N     81.00000000    50.15000000    34.14000000
   C     81.91000000    50.82000000    33.23000000
   H     82.86300000    50.29100000    33.21500000
   H     81.48300000    50.82700000    32.22700000
   H     82.07000000    51.84500000    33.56400000
   H     81.22000000    50.17000000    35.13000000
  Ca     73.24000000    50.87000000    37.79000000
   O     73.93000000    48.84000000    39.25000000
   H     74.67000000    48.41000000    39.68000000
   H     73.16000000    48.37000000    39.58000000

Ca 1.70



