%chk=CaMKII_loop3_102.0.chk
%nprocshared=48
%mem=10GB
%nosave
#b3lyp/svp scf=(tight,noincore) Test 
#IOP(5/87=12) Density=Current Pop=(MK,readradii) iop(6/33=2) iop(6/42=6)

CaMKII_loop3_102.0 

   0   1
   C     35.31000000    38.25000000    97.86900000
   C     35.92000000    36.86000000    97.70900000
   O     36.95000000    36.72000000    97.05900000
   H     34.34100000    38.16600000    98.36100000
   H     35.97200000    38.87000000    98.47300000
   H     35.18000000    38.70600000    96.88700000
   N     35.30000000    35.91000000    98.40900000
   C     35.59000000    34.49000000    98.29900000
   C     34.92000000    33.82000000    97.11900000
   O     33.74000000    34.03000000    96.83900000
   C     35.39000000    33.90000000    99.69900000
   C     35.62000000    32.41000000    99.84900000
   O     35.09000000    31.83000000   100.82900000
   O     36.23000000    31.73000000    98.98900000
   H     34.42000000    36.16000000    98.84900000
   H     36.67000000    34.44000000    98.11900000
   H     34.37000000    34.11000000   100.01900000
   H     36.09000000    34.25000000   100.44900000
   N     35.69000000    33.10000000    96.29900000
   C     35.43000000    32.64000000    94.94900000
   C     34.95000000    31.19000000    94.86900000
   O     34.08000000    30.81000000    94.09900000
   C     36.74000000    32.90000000    94.19900000
   C     36.56000000    33.10000000    92.69900000
   C     37.85000000    33.41000000    91.93900000
   C     37.57000000    33.81000000    90.49900000
   N     37.00000000    32.74000000    89.66900000
   H     36.63000000    32.84000000    96.56900000
   H     34.67000000    33.21000000    94.42900000
   H     37.41000000    32.05000000    94.34900000
   H     37.19000000    33.81000000    94.58900000
   H     35.87000000    33.93000000    92.55900000
   H     36.01000000    32.29000000    92.21900000
   H     38.48000000    32.52000000    91.94900000
   H     38.40000000    34.20000000    92.45900000
   H     38.48000000    34.16000000    89.99900000
   H     36.94000000    34.71000000    90.49900000
   H     37.59000000    31.92000000    89.73900000
   H     36.06000000    32.40000000    89.77900000
   H     36.98000000    33.18000000    88.75900000
   N     35.39000000    30.38000000    95.83900000
   C     35.06000000    28.97000000    95.88900000
   C     34.20000000    28.69000000    97.10900000
   O     33.66000000    27.59000000    97.21900000
   C     36.28000000    28.05000000    95.84900000
   C     37.17000000    28.14000000    97.07900000
   O     37.00000000    29.10000000    97.85900000
   O     38.08000000    27.29000000    97.15900000
   H     36.14000000    30.69000000    96.44900000
   H     34.47000000    28.64000000    95.02900000
   H     36.85000000    28.33000000    94.95900000
   H     35.90000000    27.04000000    95.76900000
   N     34.10000000    29.68000000    97.99900000
   C     33.36000000    29.52000000    99.23900000
   C     33.95000000    28.61000000   100.30900000
   O     33.24000000    28.09000000   101.16900000
   H     34.62000000    30.53000000    97.83900000
   H     32.42000000    29.08000000    98.91900000
   H     33.24000000    30.50000000    99.70900000
   N     35.26000000    28.36000000   100.28900000
   C     35.95000000    27.52000000   101.25900000
   C     36.16000000    28.12000000   102.63900000
   O     36.69000000    27.40000000   103.47900000
   C     37.26000000    26.93000000   100.75900000
   C     38.47000000    27.86000000   100.75900000
   N     39.66000000    27.32000000   100.45900000
   O     38.43000000    29.06000000   100.96900000
   H     35.86000000    28.78000000    99.59900000
   H     35.24000000    26.71000000   101.42900000
   H     37.15000000    26.51000000    99.75900000
   H     37.49000000    26.08000000   101.38900000
   H     39.79000000    26.32000000   100.38900000
   H     40.46000000    27.79000000   100.84900000
   N     35.66000000    29.33000000   102.89900000
   C     35.62000000    29.96000000   104.19900000
   C     36.72000000    31.00000000   104.41900000
   O     36.66000000    31.66000000   105.44900000
   H     35.26000000    29.81000000   102.09900000
   H     35.91000000    29.23000000   104.95900000
   H     34.65000000    30.41000000   104.39900000
   N     37.65000000    31.20000000   103.48900000
   C     38.63000000    32.26000000   103.51900000
   C     38.95000000    32.88000000   102.15900000
   O     38.76000000    32.30000000   101.08900000
   C     39.88000000    31.71000000   104.19900000
   C     40.04000000    30.25000000   104.52900000
   C     40.11000000    29.84000000   105.86900000
   C     40.10000000    29.33000000   103.47900000
   C     40.19000000    28.48000000   106.16900000
   C     40.31000000    27.98000000   103.80900000
   C     40.20000000    27.52000000   105.13900000
   O     40.44000000    26.20000000   105.40900000
   H     37.54000000    30.60000000   102.67900000
   H     38.30000000    33.04000000   104.19900000
   H     39.93000000    32.21000000   105.16900000
   H     40.77000000    32.08000000   103.67900000
   H     40.02000000    30.47000000   106.74900000
   H     40.15000000    29.64000000   102.44900000
   H     40.20000000    28.15000000   107.19900000
   H     40.40000000    27.25000000   103.02900000
   H     40.59000000    25.98000000   106.32900000
   N     39.45000000    34.12000000   102.23900000
   C     39.86000000    34.91000000   101.09900000
   C     41.37000000    34.70000000   101.00900000
   O     42.07000000    34.80000000   102.00900000
   C     39.60000000    36.40000000   101.28900000
   C     38.19000000    36.72000000   101.77900000
   C     39.82000000    37.17000000    99.99900000
   C     37.97000000    38.14000000   102.28900000
   H     39.60000000    34.47000000   103.17900000
   H     39.46000000    34.50000000   100.16900000
   H     40.37000000    36.78000000   101.96900000
   H     37.82000000    36.08000000   102.56900000
   H     37.54000000    36.61000000   100.90900000
   H     39.17000000    36.82000000    99.18900000
   H     39.77000000    38.25000000   100.15900000
   H     40.82000000    37.05000000    99.59900000
   H     38.41000000    38.12000000   103.27900000
   H     38.38000000    38.93000000   101.64900000
   H     36.93000000    38.46000000   102.38900000
   N     41.91000000    34.56000000    99.79900000
   C     43.33000000    34.61000000    99.48900000
   C     43.62000000    35.61000000    98.37900000
   O     42.72000000    36.07000000    97.67900000
   C     43.93000000    33.26000000    99.10900000
   O     43.20000000    32.64000000    98.06900000
   H     41.26000000    34.58000000    99.02900000
   H     43.86000000    35.01000000   100.34900000
   H     43.93000000    32.62000000    99.98900000
   H     44.96000000    33.20000000    98.73900000
   H     43.45000000    31.72000000    97.94900000
   N     44.83000000    36.09000000    98.04900000
   C     45.18000000    37.21000000    97.20900000
   C     44.65000000    37.07000000    95.78900000
   O     44.16000000    38.04000000    95.20900000
   C     46.68000000    37.49000000    97.20900000
   H     45.52000000    35.77000000    98.70900000
   H     44.73000000    38.14000000    97.53900000
   H     46.90000000    38.40000000    96.64900000
   H     47.05000000    37.51000000    98.23900000
   H     47.23000000    36.66000000    96.77900000
   N     44.71000000    35.91000000    95.12900000
   C     44.04000000    35.78000000    93.84900000
   C     42.56000000    36.09000000    93.71900000
   O     42.17000000    36.64000000    92.67900000
   C     44.20000000    34.35000000    93.34900000
   H     45.17000000    35.12000000    95.54900000
   H     44.62000000    36.42000000    93.17900000
   H     43.98000000    34.37000000    92.27900000
   H     45.24000000    34.04000000    93.41900000
   H     43.66000000    33.53000000    93.82900000
   N     41.80000000    35.80000000    94.76900000
   C     40.39000000    36.11000000    94.91900000
   C     40.12000000    37.57000000    95.23900000
   O     39.31000000    38.25000000    94.60900000
   C     39.76000000    35.24000000    96.00900000
   C     40.19000000    33.78000000    95.95900000
   C     39.41000000    32.96000000    96.97900000
   O     38.42000000    32.26000000    96.68900000
   O     39.80000000    32.91000000    98.16900000
   H     42.22000000    35.37000000    95.57900000
   H     39.94000000    35.92000000    93.93900000
   H     38.67000000    35.34000000    95.93900000
   H     40.17000000    35.57000000    96.95900000
   H     41.23000000    33.89000000    96.25900000
   H     39.96000000    33.36000000    94.97900000
   N     40.96000000    38.22000000    96.03900000
   C     41.10000000    39.65000000    96.27900000
   H     41.97100000    40.02400000    95.74200000
   H     40.20700000    40.16700000    95.92700000
   H     41.22800000    39.82900000    97.34700000
   H     41.67000000    37.66000000    96.48900000
  Ca     38.55000000    30.83000000    98.99000000
   O     39.98000000    29.19000000    97.50000000
   H     39.52000000    28.40000000    97.24000000
   H     40.77000000    29.20000000    96.95000000

Ca 1.70



