%chk=CaMKII_loop3_80.0.chk
%nprocshared=48
%mem=10GB
%nosave
#b3lyp/svp scf=(tight,noincore) Test 
#IOP(5/87=12) Density=Current Pop=(MK,readradii) iop(6/33=2) iop(6/42=6)

CaMKII_loop3_80.0 

   0   1
   C     68.39000000    48.78000000    34.90000000
   C     67.38000000    48.34000000    35.94000000
   O     67.43000000    47.16000000    36.29000000
   H     69.32900000    48.25000000    35.05900000
   H     68.00900000    48.55300000    33.90400000
   H     68.56000000    49.85300000    34.98900000
   N     66.45000000    49.22000000    36.33000000
   C     65.40000000    48.77000000    37.23000000
   C     64.34000000    47.90000000    36.58000000
   O     63.47000000    48.34000000    35.83000000
   C     64.67000000    49.97000000    37.83000000
   C     63.74000000    49.59000000    38.98000000
   O     63.54000000    48.38000000    39.20000000
   O     63.32000000    50.54000000    39.68000000
   H     66.49000000    50.19000000    36.07000000
   H     65.83000000    48.29000000    38.11000000
   H     64.11000000    50.55000000    37.10000000
   H     65.44000000    50.64000000    38.22000000
   N     64.40000000    46.60000000    36.90000000
   C     63.67000000    45.54000000    36.24000000
   C     62.17000000    45.48000000    36.46000000
   O     61.43000000    44.92000000    35.66000000
   C     64.43000000    44.25000000    36.53000000
   C     64.00000000    42.93000000    35.89000000
   C     64.67000000    41.63000000    36.35000000
   C     66.16000000    41.73000000    36.05000000
   N     66.57000000    41.44000000    34.66000000
   H     65.29000000    46.34000000    37.30000000
   H     63.80000000    45.71000000    35.17000000
   H     64.51000000    44.07000000    37.60000000
   H     65.41000000    44.46000000    36.11000000
   H     64.17000000    42.92000000    34.82000000
   H     62.94000000    42.82000000    36.12000000
   H     64.27000000    40.73000000    35.89000000
   H     64.57000000    41.33000000    37.39000000
   H     66.85000000    41.15000000    36.67000000
   H     66.50000000    42.74000000    36.23000000
   H     65.92000000    41.82000000    33.99000000
   H     67.53000000    41.69000000    34.48000000
   H     66.34000000    40.47000000    34.51000000
   N     61.63000000    46.09000000    37.52000000
   C     60.25000000    46.11000000    37.96000000
   C     59.70000000    47.53000000    38.05000000
   O     58.55000000    47.61000000    38.48000000
   C     59.98000000    45.20000000    39.16000000
   C     60.86000000    45.42000000    40.37000000
   O     60.55000000    44.79000000    41.41000000
   O     61.79000000    46.26000000    40.37000000
   H     62.26000000    46.61000000    38.12000000
   H     59.60000000    45.69000000    37.19000000
   H     60.13000000    44.17000000    38.81000000
   H     58.96000000    45.20000000    39.53000000
   N     60.42000000    48.57000000    37.63000000
   C     59.95000000    49.94000000    37.68000000
   C     59.85000000    50.59000000    39.06000000
   O     59.17000000    51.61000000    39.15000000
   H     61.38000000    48.37000000    37.42000000
   H     58.96000000    49.94000000    37.22000000
   H     60.63000000    50.47000000    37.01000000
   N     60.45000000    49.97000000    40.08000000
   C     60.08000000    50.21000000    41.46000000
   C     60.92000000    51.28000000    42.15000000
   O     60.83000000    51.41000000    43.37000000
   C     60.12000000    48.90000000    42.25000000
   C     61.42000000    48.66000000    43.01000000
   N     61.34000000    48.54000000    44.33000000
   O     62.46000000    48.36000000    42.43000000
   H     61.17000000    49.27000000    40.03000000
   H     59.02000000    50.45000000    41.42000000
   H     60.03000000    48.08000000    41.54000000
   H     59.25000000    48.78000000    42.90000000
   H     60.43000000    48.49000000    44.78000000
   H     62.23000000    48.38000000    44.78000000
   N     61.87000000    51.97000000    41.53000000
   C     62.60000000    53.06000000    42.15000000
   C     64.03000000    52.70000000    42.52000000
   O     64.74000000    53.60000000    42.97000000
   H     62.19000000    51.65000000    40.62000000
   H     62.13000000    53.42000000    43.06000000
   H     62.61000000    53.82000000    41.37000000
   N     64.52000000    51.49000000    42.23000000
   C     65.73000000    50.93000000    42.79000000
   C     66.34000000    49.87000000    41.88000000
   O     65.69000000    49.01000000    41.30000000
   C     65.44000000    50.29000000    44.15000000
   C     65.16000000    51.21000000    45.32000000
   C     66.30000000    51.39000000    46.12000000
   C     63.88000000    51.53000000    45.77000000
   C     66.22000000    52.07000000    47.34000000
   C     63.79000000    52.26000000    46.97000000
   C     64.95000000    52.52000000    47.73000000
   O     64.77000000    53.14000000    48.93000000
   H     63.94000000    50.83000000    41.73000000
   H     66.34000000    51.82000000    42.89000000
   H     66.15000000    49.50000000    44.38000000
   H     64.47000000    49.80000000    44.07000000
   H     67.28000000    51.17000000    45.73000000
   H     62.98000000    51.39000000    45.19000000
   H     67.04000000    52.33000000    47.99000000
   H     62.81000000    52.60000000    47.25000000
   H     63.90000000    53.54000000    48.97000000
   N     67.67000000    49.94000000    41.76000000
   C     68.53000000    48.95000000    41.15000000
   C     69.24000000    48.16000000    42.24000000
   O     69.95000000    48.76000000    43.04000000
   C     69.52000000    49.69000000    40.24000000
   C     69.00000000    50.92000000    39.51000000
   C     70.00000000    48.56000000    39.34000000
   C     70.12000000    51.69000000    38.81000000
   H     68.14000000    50.75000000    42.13000000
   H     67.98000000    48.30000000    40.47000000
   H     70.36000000    49.92000000    40.91000000
   H     68.33000000    51.61000000    40.03000000
   H     68.26000000    50.62000000    38.78000000
   H     69.20000000    48.20000000    38.69000000
   H     70.81000000    48.95000000    38.72000000
   H     70.39000000    47.67000000    39.83000000
   H     70.82000000    51.06000000    38.26000000
   H     69.65000000    52.41000000    38.15000000
   H     70.71000000    52.33000000    39.47000000
   N     69.10000000    46.83000000    42.26000000
   C     69.90000000    45.89000000    43.02000000
   C     71.00000000    45.15000000    42.27000000
   O     71.01000000    45.02000000    41.04000000
   C     69.02000000    44.88000000    43.73000000
   O     68.10000000    44.15000000    42.95000000
   H     68.50000000    46.42000000    41.56000000
   H     70.40000000    46.50000000    43.77000000
   H     68.41000000    45.40000000    44.47000000
   H     69.59000000    44.07000000    44.19000000
   H     67.48000000    44.75000000    42.54000000
   N     72.04000000    44.62000000    42.91000000
   C     73.31000000    44.20000000    42.34000000
   C     73.17000000    43.21000000    41.18000000
   O     73.85000000    43.27000000    40.17000000
   C     74.30000000    43.82000000    43.43000000
   H     71.99000000    44.58000000    43.91000000
   H     73.67000000    45.08000000    41.82000000
   H     74.23000000    42.78000000    43.74000000
   H     75.28000000    43.96000000    42.97000000
   H     74.25000000    44.53000000    44.26000000
   N     72.16000000    42.33000000    41.19000000
   C     71.79000000    41.36000000    40.18000000
   C     71.10000000    41.96000000    38.96000000
   O     71.34000000    41.53000000    37.83000000
   C     71.10000000    40.15000000    40.80000000
   H     71.57000000    42.52000000    41.98000000
   H     72.80000000    41.06000000    39.88000000
   H     70.99000000    39.40000000    40.01000000
   H     71.85000000    39.78000000    41.49000000
   H     70.17000000    40.41000000    41.32000000
   N     70.26000000    42.97000000    39.17000000
   C     69.70000000    43.72000000    38.07000000
   C     70.76000000    44.55000000    37.36000000
   O     70.82000000    44.58000000    36.13000000
   C     68.62000000    44.70000000    38.53000000
   C     67.50000000    44.07000000    39.36000000
   C     66.57000000    45.17000000    39.84000000
   O     66.73000000    45.70000000    40.96000000
   O     65.63000000    45.58000000    39.12000000
   H     70.27000000    43.49000000    40.04000000
   H     69.27000000    43.01000000    37.36000000
   H     68.13000000    45.18000000    37.68000000
   H     69.17000000    45.40000000    39.14000000
   H     67.92000000    43.51000000    40.20000000
   H     66.89000000    43.41000000    38.75000000
   N     71.71000000    45.16000000    38.08000000
   C     72.89000000    45.78000000    37.51000000
   H     73.72400000    45.07900000    37.55100000
   H     72.69400000    46.05000000    36.47200000
   H     73.14100000    46.67600000    38.07800000
   H     71.60000000    45.10000000    39.08000000
  Ca     64.15000000    46.75000000    40.96000000
   O     64.67000000    46.79000000    43.65000000
   H     65.20000000    46.27000000    44.26000000
   H     64.23000000    47.43000000    44.21000000

Ca 1.70



