%chk=CaMKII_loop3_83.0.chk
%nprocshared=48
%mem=10GB
%nosave
#b3lyp/svp scf=(tight,noincore) Test 
#IOP(5/87=12) Density=Current Pop=(MK,readradii) iop(6/33=2) iop(6/42=6)

CaMKII_loop3_83.0 

   0   1
   C     69.05000000    49.16000000    24.25000000
   C     67.75000000    48.58000000    24.79000000
   O     67.71000000    47.47000000    25.32000000
   H     69.84400000    48.41800000    24.34100000
   H     68.92200000    49.42600000    23.20100000
   H     69.31700000    50.04900000    24.82100000
   N     66.61000000    49.27000000    24.73000000
   C     65.32000000    48.94000000    25.29000000
   C     64.46000000    47.98000000    24.47000000
   O     63.96000000    48.37000000    23.42000000
   C     64.56000000    50.23000000    25.60000000
   C     63.14000000    49.95000000    26.07000000
   O     62.78000000    48.80000000    26.40000000
   O     62.30000000    50.87000000    26.06000000
   H     66.70000000    50.19000000    24.33000000
   H     65.54000000    48.51000000    26.27000000
   H     64.41000000    50.71000000    24.64000000
   H     65.09000000    50.89000000    26.29000000
   N     64.33000000    46.72000000    24.88000000
   C     64.01000000    45.66000000    23.95000000
   C     62.54000000    45.77000000    23.55000000
   O     62.28000000    45.33000000    22.43000000
   C     64.50000000    44.33000000    24.49000000
   C     64.42000000    43.15000000    23.52000000
   C     64.73000000    41.88000000    24.31000000
   C     64.78000000    40.69000000    23.35000000
   N     64.98000000    39.45000000    24.11000000
   H     64.83000000    46.36000000    25.68000000
   H     64.66000000    45.82000000    23.09000000
   H     63.92000000    44.14000000    25.39000000
   H     65.54000000    44.33000000    24.84000000
   H     65.16000000    43.25000000    22.72000000
   H     63.39000000    42.96000000    23.23000000
   H     64.08000000    41.75000000    25.17000000
   H     65.71000000    41.86000000    24.79000000
   H     65.57000000    40.86000000    22.62000000
   H     63.78000000    40.75000000    22.92000000
   H     64.13000000    39.21000000    24.60000000
   H     65.34000000    38.73000000    23.50000000
   H     65.75000000    39.57000000    24.76000000
   N     61.57000000    46.32000000    24.28000000
   C     60.16000000    46.31000000    23.93000000
   C     59.60000000    47.71000000    23.71000000
   O     58.49000000    47.84000000    23.20000000
   C     59.31000000    45.52000000    24.92000000
   C     59.54000000    45.85000000    26.39000000
   O     58.59000000    45.63000000    27.17000000
   O     60.56000000    46.42000000    26.83000000
   H     61.76000000    46.61000000    25.22000000
   H     60.07000000    45.91000000    22.92000000
   H     59.31000000    44.45000000    24.71000000
   H     58.27000000    45.73000000    24.67000000
   N     60.36000000    48.75000000    24.04000000
   C     59.99000000    50.12000000    23.74000000
   C     59.12000000    50.85000000    24.76000000
   O     58.38000000    51.73000000    24.33000000
   H     61.28000000    48.60000000    24.43000000
   H     59.50000000    50.11000000    22.77000000
   H     60.86000000    50.78000000    23.70000000
   N     59.29000000    50.60000000    26.06000000
   C     58.48000000    51.25000000    27.07000000
   C     59.26000000    52.31000000    27.84000000
   O     58.70000000    53.02000000    28.68000000
   C     58.08000000    50.07000000    27.95000000
   C     59.08000000    49.64000000    29.01000000
   N     58.66000000    49.39000000    30.25000000
   O     60.28000000    49.56000000    28.74000000
   H     60.01000000    49.95000000    26.36000000
   H     57.50000000    51.53000000    26.70000000
   H     57.76000000    49.23000000    27.34000000
   H     57.27000000    50.51000000    28.53000000
   H     57.69000000    49.48000000    30.50000000
   H     59.32000000    48.99000000    30.91000000
   N     60.52000000    52.59000000    27.51000000
   C     61.26000000    53.73000000    28.01000000
   C     62.28000000    53.35000000    29.08000000
   O     62.70000000    54.23000000    29.82000000
   H     60.93000000    51.88000000    26.92000000
   H     60.58000000    54.43000000    28.50000000
   H     61.81000000    54.25000000    27.22000000
   N     62.68000000    52.08000000    29.15000000
   C     63.36000000    51.52000000    30.30000000
   C     64.16000000    50.26000000    30.02000000
   O     63.72000000    49.48000000    29.16000000
   C     62.34000000    51.13000000    31.38000000
   C     61.61000000    52.28000000    32.03000000
   C     62.09000000    52.92000000    33.18000000
   C     60.39000000    52.67000000    31.46000000
   C     61.33000000    53.92000000    33.79000000
   C     59.55000000    53.57000000    32.12000000
   C     60.04000000    54.19000000    33.29000000
   O     59.24000000    54.98000000    34.07000000
   H     62.18000000    51.41000000    28.59000000
   H     63.99000000    52.31000000    30.69000000
   H     62.78000000    50.63000000    32.24000000
   H     61.60000000    50.40000000    31.06000000
   H     62.99000000    52.51000000    33.60000000
   H     60.02000000    52.04000000    30.66000000
   H     61.72000000    54.51000000    34.60000000
   H     58.55000000    53.70000000    31.75000000
   H     58.36000000    54.97000000    33.69000000
   N     65.38000000    50.13000000    30.54000000
   C     66.25000000    48.99000000    30.36000000
   C     66.29000000    48.37000000    31.75000000
   O     66.20000000    49.02000000    32.79000000
   C     67.65000000    49.41000000    29.90000000
   C     67.56000000    50.12000000    28.55000000
   C     68.66000000    48.28000000    29.69000000
   C     68.62000000    51.19000000    28.33000000
   H     65.71000000    50.87000000    31.15000000
   H     65.79000000    48.27000000    29.68000000
   H     68.12000000    50.06000000    30.64000000
   H     66.58000000    50.56000000    28.35000000
   H     67.50000000    49.33000000    27.80000000
   H     69.60000000    48.59000000    29.23000000
   H     68.84000000    47.80000000    30.65000000
   H     68.26000000    47.54000000    29.00000000
   H     68.65000000    51.93000000    29.12000000
   H     69.55000000    50.63000000    28.20000000
   H     68.37000000    51.74000000    27.42000000
   N     66.48000000    47.05000000    31.74000000
   C     66.73000000    46.20000000    32.89000000
   C     67.96000000    45.37000000    32.56000000
   O     68.50000000    45.35000000    31.46000000
   C     65.56000000    45.28000000    33.24000000
   O     65.00000000    44.77000000    32.05000000
   H     66.49000000    46.60000000    30.84000000
   H     66.96000000    46.85000000    33.74000000
   H     64.77000000    45.82000000    33.76000000
   H     65.89000000    44.38000000    33.77000000
   H     64.10000000    44.54000000    32.31000000
   N     68.48000000    44.60000000    33.51000000
   C     69.68000000    43.82000000    33.27000000
   C     69.57000000    42.77000000    32.17000000
   O     70.39000000    42.70000000    31.26000000
   C     69.96000000    43.19000000    34.63000000
   H     68.10000000    44.59000000    34.45000000
   H     70.53000000    44.46000000    33.01000000
   H     70.42000000    43.88000000    35.34000000
   H     69.07000000    42.68000000    35.00000000
   H     70.67000000    42.39000000    34.42000000
   N     68.48000000    42.01000000    32.14000000
   C     68.17000000    41.03000000    31.12000000
   C     68.05000000    41.71000000    29.76000000
   O     68.41000000    41.14000000    28.74000000
   C     67.01000000    40.17000000    31.62000000
   H     67.78000000    42.15000000    32.85000000
   H     68.99000000    40.34000000    30.89000000
   H     67.25000000    39.58000000    32.50000000
   H     66.12000000    40.80000000    31.59000000
   H     66.83000000    39.50000000    30.78000000
   N     67.50000000    42.93000000    29.66000000
   C     67.72000000    43.66000000    28.44000000
   C     69.14000000    44.16000000    28.20000000
   O     69.59000000    44.03000000    27.06000000
   C     66.72000000    44.80000000    28.31000000
   C     65.30000000    44.26000000    28.12000000
   C     64.31000000    45.41000000    28.25000000
   O     63.36000000    45.18000000    29.02000000
   O     64.49000000    46.51000000    27.68000000
   H     67.25000000    43.51000000    30.45000000
   H     67.46000000    43.03000000    27.59000000
   H     66.89000000    45.36000000    27.39000000
   H     66.67000000    45.44000000    29.19000000
   H     65.19000000    43.43000000    28.80000000
   H     65.27000000    43.81000000    27.13000000
   N     69.91000000    44.65000000    29.18000000
   C     71.24000000    45.09000000    28.83000000
   H     71.93800000    44.26100000    28.94600000
   H     71.25000000    45.43100000    27.79500000
   H     71.53700000    45.90900000    29.48600000
   H     69.41000000    44.78000000    30.05000000
  Ca     62.07000000    47.52000000    28.51000000
   O     62.67000000    47.24000000    30.98000000
   H     62.13000000    47.61000000    31.68000000
   H     63.41000000    46.83000000    31.44000000

Ca 1.70



