%chk=CaMKII_loop3_109.0.chk
%nprocshared=48
%mem=10GB
%nosave
#b3lyp/svp scf=(tight,noincore) Test 
#IOP(5/87=12) Density=Current Pop=(MK,readradii) iop(6/33=2) iop(6/42=6)

CaMKII_loop3_109.0 

   0   1
   C     77.18000000    54.81000000    41.75000000
   C     76.64000000    55.02000000    43.16000000
   O     77.15000000    54.40000000    44.09000000
   H     78.20300000    54.43700000    41.80500000
   H     76.55700000    54.08500000    41.22600000
   H     77.16800000    55.75700000    41.21100000
   N     75.56000000    55.78000000    43.39000000
   C     74.77000000    55.78000000    44.61000000
   C     73.89000000    54.54000000    44.68000000
   O     73.04000000    54.45000000    43.79000000
   C     74.06000000    57.12000000    44.79000000
   C     73.26000000    57.25000000    46.07000000
   O     73.44000000    56.47000000    47.03000000
   O     72.42000000    58.17000000    46.15000000
   H     75.18000000    56.23000000    42.57000000
   H     75.48000000    55.69000000    45.43000000
   H     73.47000000    57.26000000    43.88000000
   H     74.75000000    57.96000000    44.79000000
   N     74.16000000    53.69000000    45.66000000
   C     73.58000000    52.36000000    45.77000000
   C     72.35000000    52.28000000    46.66000000
   O     71.42000000    51.54000000    46.36000000
   C     74.68000000    51.46000000    46.32000000
   C     74.51000000    50.02000000    45.86000000
   C     75.66000000    49.20000000    46.44000000
   C     75.49000000    47.68000000    46.33000000
   N     76.49000000    46.92000000    47.10000000
   H     74.93000000    53.93000000    46.26000000
   H     73.25000000    52.02000000    44.79000000
   H     74.64000000    51.51000000    47.41000000
   H     75.61000000    51.80000000    45.86000000
   H     74.49000000    50.00000000    44.77000000
   H     73.54000000    49.72000000    46.28000000
   H     75.71000000    49.42000000    47.50000000
   H     76.55000000    49.46000000    45.86000000
   H     75.62000000    47.36000000    45.30000000
   H     74.56000000    47.31000000    46.76000000
   H     76.30000000    45.93000000    47.01000000
   H     77.38000000    47.20000000    46.72000000
   H     76.52000000    47.14000000    48.08000000
   N     72.22000000    52.93000000    47.81000000
   C     71.05000000    53.16000000    48.63000000
   C     70.17000000    54.30000000    48.12000000
   O     68.99000000    54.32000000    48.45000000
   C     71.28000000    53.34000000    50.12000000
   C     72.16000000    54.51000000    50.54000000
   O     72.54000000    54.75000000    51.71000000
   O     72.60000000    55.31000000    49.68000000
   H     73.00000000    53.53000000    48.06000000
   H     70.40000000    52.31000000    48.41000000
   H     71.76000000    52.42000000    50.45000000
   H     70.35000000    53.49000000    50.67000000
   N     70.68000000    55.20000000    47.27000000
   C     69.89000000    56.27000000    46.71000000
   C     69.61000000    57.44000000    47.65000000
   O     68.65000000    58.14000000    47.33000000
   H     71.68000000    55.23000000    47.16000000
   H     69.04000000    55.88000000    46.16000000
   H     70.56000000    56.63000000    45.92000000
   N     70.38000000    57.64000000    48.72000000
   C     70.21000000    58.82000000    49.55000000
   C     70.70000000    60.10000000    48.90000000
   O     70.51000000    61.15000000    49.50000000
   C     70.81000000    58.62000000    50.94000000
   C     72.33000000    58.51000000    50.94000000
   N     73.00000000    58.61000000    52.09000000
   O     73.05000000    58.20000000    49.99000000
   H     71.16000000    57.02000000    48.80000000
   H     69.15000000    59.03000000    49.69000000
   H     70.41000000    57.70000000    51.36000000
   H     70.48000000    59.45000000    51.57000000
   H     72.39000000    58.56000000    52.89000000
   H     73.99000000    58.43000000    52.07000000
   N     71.22000000    60.13000000    47.67000000
   C     71.54000000    61.35000000    46.95000000
   C     73.00000000    61.74000000    46.78000000
   O     73.30000000    62.72000000    46.10000000
   H     71.48000000    59.26000000    47.24000000
   H     71.13000000    62.14000000    47.57000000
   H     71.12000000    61.45000000    45.95000000
   N     73.89000000    61.03000000    47.49000000
   C     75.33000000    61.12000000    47.46000000
   C     76.05000000    59.78000000    47.41000000
   O     75.55000000    58.77000000    47.89000000
   C     75.84000000    62.07000000    48.54000000
   C     74.94000000    62.38000000    49.72000000
   C     74.22000000    63.58000000    49.66000000
   C     74.68000000    61.42000000    50.70000000
   C     73.17000000    63.78000000    50.57000000
   C     73.66000000    61.69000000    51.62000000
   C     72.76000000    62.76000000    51.45000000
   O     71.72000000    62.97000000    52.30000000
   H     73.48000000    60.31000000    48.06000000
   H     75.65000000    61.62000000    46.54000000
   H     76.14000000    63.01000000    48.06000000
   H     76.78000000    61.66000000    48.90000000
   H     74.44000000    64.19000000    48.80000000
   H     75.24000000    60.50000000    50.73000000
   H     72.59000000    64.69000000    50.53000000
   H     73.52000000    61.02000000    52.46000000
   H     71.56000000    62.30000000    52.96000000
   N     77.15000000    59.76000000    46.64000000
   C     78.00000000    58.62000000    46.40000000
   C     78.92000000    58.54000000    47.61000000
   O     79.40000000    59.58000000    48.05000000
   C     78.78000000    58.68000000    45.09000000
   C     77.86000000    58.86000000    43.89000000
   C     79.65000000    57.45000000    44.84000000
   C     78.50000000    59.50000000    42.66000000
   H     77.57000000    60.65000000    46.41000000
   H     77.38000000    57.72000000    46.38000000
   H     79.48000000    59.52000000    45.14000000
   H     77.04000000    59.54000000    44.14000000
   H     77.46000000    57.90000000    43.56000000
   H     79.16000000    56.48000000    44.90000000
   H     80.00000000    57.46000000    43.80000000
   H     80.53000000    57.57000000    45.47000000
   H     77.72000000    59.77000000    41.95000000
   H     79.24000000    60.27000000    42.90000000
   H     78.99000000    58.66000000    42.17000000
   N     79.23000000    57.31000000    48.03000000
   C     80.24000000    57.02000000    49.02000000
   C     81.28000000    56.11000000    48.39000000
   O     81.10000000    55.39000000    47.41000000
   C     79.53000000    56.48000000    50.26000000
   O     79.32000000    55.10000000    50.10000000
   H     78.78000000    56.51000000    47.61000000
   H     80.66000000    57.99000000    49.28000000
   H     78.58000000    56.98000000    50.47000000
   H     80.11000000    56.63000000    51.18000000
   H     78.49000000    55.13000000    49.62000000
   N     82.48000000    56.15000000    48.99000000
   C     83.62000000    55.38000000    48.57000000
   C     83.45000000    53.86000000    48.57000000
   O     84.12000000    53.23000000    47.75000000
   C     84.76000000    55.69000000    49.53000000
   H     82.63000000    56.77000000    49.78000000
   H     84.04000000    55.68000000    47.61000000
   H     84.39000000    55.26000000    50.46000000
   H     85.69000000    55.23000000    49.19000000
   H     84.89000000    56.78000000    49.59000000
   N     82.68000000    53.22000000    49.45000000
   C     82.33000000    51.82000000    49.27000000
   C     81.34000000    51.50000000    48.16000000
   O     81.31000000    50.41000000    47.58000000
   C     81.75000000    51.28000000    50.58000000
   H     82.19000000    53.67000000    50.20000000
   H     83.26000000    51.30000000    49.07000000
   H     82.50000000    51.38000000    51.36000000
   H     80.85000000    51.81000000    50.90000000
   H     81.53000000    50.23000000    50.44000000
   N     80.46000000    52.44000000    47.83000000
   C     79.52000000    52.41000000    46.73000000
   C     80.16000000    52.56000000    45.35000000
   O     79.81000000    51.80000000    44.45000000
   C     78.34000000    53.38000000    46.86000000
   C     77.64000000    53.32000000    48.21000000
   C     76.62000000    54.44000000    48.34000000
   O     75.41000000    54.27000000    48.09000000
   O     77.02000000    55.57000000    48.69000000
   H     80.56000000    53.31000000    48.34000000
   H     79.15000000    51.38000000    46.76000000
   H     77.65000000    53.18000000    46.04000000
   H     78.68000000    54.41000000    46.84000000
   H     78.38000000    53.41000000    49.00000000
   H     77.24000000    52.30000000    48.27000000
   N     81.16000000    53.44000000    45.27000000
   C     82.08000000    53.64000000    44.17000000
   H     83.03500000    53.16900000    44.40500000
   H     81.66800000    53.19300000    43.26500000
   H     82.23100000    54.70800000    44.01200000
   H     81.19000000    54.09000000    46.04000000
  Ca     74.68000000    56.61000000    49.18000000
   O     75.01000000    55.86000000    51.82000000
   H     74.14000000    55.47000000    51.79000000
   H     75.40000000    55.52000000    52.62000000

Ca 1.70



