%chk=CaMKII_loop3_99.0.chk
%nprocshared=48
%mem=10GB
%nosave
#b3lyp/svp scf=(tight,noincore) Test 
#IOP(5/87=12) Density=Current Pop=(MK,readradii) iop(6/33=2) iop(6/42=6)

CaMKII_loop3_99.0 

   0   1
   C     71.16000000    51.01000000    20.21000000
   C     70.63000000    49.59000000    20.09000000
   O     71.28000000    48.77000000    19.44000000
   H     72.11400000    51.08600000    19.68900000
   H     70.44700000    51.70300000    19.76400000
   H     71.30000000    51.25900000    21.26200000
   N     69.39000000    49.39000000    20.54000000
   C     68.85000000    48.05000000    20.61000000
   C     68.12000000    47.83000000    19.30000000
   O     66.92000000    47.61000000    19.16000000
   C     67.99000000    47.78000000    21.85000000
   C     67.26000000    46.45000000    21.84000000
   O     66.10000000    46.44000000    22.30000000
   O     67.93000000    45.48000000    21.42000000
   H     68.91000000    50.13000000    21.02000000
   H     69.58000000    47.24000000    20.62000000
   H     67.25000000    48.57000000    21.95000000
   H     68.71000000    48.01000000    22.64000000
   N     68.86000000    47.95000000    18.19000000
   C     68.47000000    47.96000000    16.79000000
   C     67.75000000    46.68000000    16.39000000
   O     67.13000000    46.62000000    15.33000000
   C     69.71000000    48.22000000    15.94000000
   C     70.86000000    47.23000000    16.08000000
   C     71.82000000    47.40000000    14.91000000
   C     73.26000000    46.90000000    15.01000000
   N     73.33000000    45.43000000    14.95000000
   H     69.81000000    48.27000000    18.28000000
   H     67.74000000    48.74000000    16.58000000
   H     70.02000000    49.19000000    16.34000000
   H     69.38000000    48.28000000    14.90000000
   H     70.48000000    46.21000000    16.09000000
   H     71.46000000    47.42000000    16.97000000
   H     71.93000000    48.45000000    14.62000000
   H     71.39000000    46.88000000    14.05000000
   H     73.66000000    47.34000000    15.93000000
   H     73.81000000    47.40000000    14.23000000
   H     74.28000000    45.09000000    15.03000000
   H     72.84000000    45.05000000    15.74000000
   H     72.91000000    44.91000000    14.19000000
   N     67.87000000    45.62000000    17.19000000
   C     67.24000000    44.32000000    17.03000000
   C     66.02000000    44.16000000    17.92000000
   O     65.29000000    43.20000000    17.70000000
   C     68.19000000    43.23000000    17.52000000
   C     68.67000000    43.42000000    18.95000000
   O     69.49000000    44.36000000    19.05000000
   O     68.30000000    42.71000000    19.91000000
   H     68.55000000    45.73000000    17.92000000
   H     67.08000000    44.25000000    15.95000000
   H     69.00000000    43.18000000    16.79000000
   H     67.69000000    42.27000000    17.37000000
   N     65.73000000    45.12000000    18.80000000
   C     64.52000000    45.20000000    19.59000000
   C     64.40000000    44.24000000    20.77000000
   O     63.30000000    44.18000000    21.30000000
   H     66.40000000    45.87000000    18.84000000
   H     63.62000000    45.03000000    19.00000000
   H     64.64000000    46.11000000    20.18000000
   N     65.38000000    43.39000000    21.09000000
   C     65.19000000    42.45000000    22.18000000
   C     64.81000000    43.01000000    23.54000000
   O     64.37000000    42.29000000    24.44000000
   C     66.22000000    41.33000000    22.17000000
   C     67.42000000    41.57000000    23.07000000
   N     67.75000000    40.57000000    23.90000000
   O     68.03000000    42.63000000    23.06000000
   H     66.30000000    43.56000000    20.73000000
   H     64.30000000    41.90000000    21.85000000
   H     66.48000000    41.10000000    21.14000000
   H     65.68000000    40.46000000    22.56000000
   H     67.26000000    39.69000000    23.89000000
   H     68.40000000    40.79000000    24.64000000
   N     65.01000000    44.31000000    23.77000000
   C     64.85000000    45.06000000    24.99000000
   C     66.08000000    45.47000000    25.79000000
   O     65.84000000    46.03000000    26.87000000
   H     65.40000000    44.90000000    23.05000000
   H     64.31000000    44.42000000    25.69000000
   H     64.27000000    45.96000000    24.78000000
   N     67.27000000    45.09000000    25.35000000
   C     68.55000000    45.23000000    26.02000000
   C     69.57000000    45.62000000    24.96000000
   O     69.47000000    45.29000000    23.78000000
   C     68.87000000    43.89000000    26.68000000
   C     67.82000000    43.36000000    27.63000000
   C     67.87000000    43.74000000    28.98000000
   C     66.98000000    42.35000000    27.16000000
   C     66.96000000    43.15000000    29.86000000
   C     66.10000000    41.75000000    28.07000000
   C     66.02000000    42.21000000    29.39000000
   O     65.17000000    41.53000000    30.21000000
   H     67.27000000    44.54000000    24.50000000
   H     68.53000000    46.05000000    26.74000000
   H     69.80000000    44.02000000    27.24000000
   H     69.14000000    43.17000000    25.91000000
   H     68.66000000    44.32000000    29.42000000
   H     67.03000000    42.14000000    26.10000000
   H     66.99000000    43.37000000    30.92000000
   H     65.53000000    40.90000000    27.69000000
   H     64.62000000    40.97000000    29.66000000
   N     70.56000000    46.42000000    25.37000000
   C     71.69000000    46.96000000    24.63000000
   C     72.86000000    46.07000000    25.03000000
   O     73.14000000    45.83000000    26.20000000
   C     71.98000000    48.38000000    25.10000000
   C     70.87000000    49.32000000    24.63000000
   C     73.26000000    48.98000000    24.53000000
   C     71.01000000    50.78000000    25.05000000
   H     70.60000000    46.71000000    26.33000000
   H     71.56000000    46.97000000    23.55000000
   H     72.07000000    48.40000000    26.18000000
   H     69.87000000    49.04000000    24.95000000
   H     70.88000000    49.25000000    23.55000000
   H     73.14000000    49.33000000    23.50000000
   H     73.55000000    49.79000000    25.20000000
   H     74.10000000    48.28000000    24.56000000
   H     70.06000000    51.30000000    24.88000000
   H     71.15000000    50.84000000    26.13000000
   H     71.83000000    51.32000000    24.58000000
   N     73.53000000    45.57000000    23.99000000
   C     74.83000000    44.94000000    24.07000000
   C     76.01000000    45.90000000    23.87000000
   O     75.98000000    46.92000000    23.20000000
   C     75.02000000    43.76000000    23.12000000
   O     73.92000000    42.90000000    23.28000000
   H     73.13000000    45.82000000    23.09000000
   H     74.87000000    44.53000000    25.08000000
   H     75.93000000    43.23000000    23.42000000
   H     75.15000000    44.13000000    22.10000000
   H     74.05000000    42.08000000    22.81000000
   N     77.19000000    45.57000000    24.40000000
   C     78.45000000    46.23000000    24.13000000
   C     78.79000000    46.26000000    22.65000000
   O     79.20000000    47.32000000    22.16000000
   C     79.51000000    45.48000000    24.93000000
   H     77.21000000    44.77000000    25.02000000
   H     78.43000000    47.26000000    24.48000000
   H     80.24000000    46.17000000    25.34000000
   H     79.06000000    44.96000000    25.78000000
   H     80.02000000    44.70000000    24.35000000
   N     78.50000000    45.18000000    21.92000000
   C     78.55000000    45.12000000    20.47000000
   C     77.62000000    46.07000000    19.71000000
   O     77.93000000    46.58000000    18.64000000
   C     78.45000000    43.67000000    20.01000000
   H     78.32000000    44.34000000    22.45000000
   H     79.55000000    45.34000000    20.11000000
   H     78.62000000    43.70000000    18.93000000
   H     79.30000000    43.07000000    20.34000000
   H     77.52000000    43.14000000    20.25000000
   N     76.48000000    46.30000000    20.36000000
   C     75.50000000    47.22000000    19.83000000
   C     75.75000000    48.70000000    20.12000000
   O     75.73000000    49.55000000    19.24000000
   C     74.17000000    46.88000000    20.50000000
   C     73.58000000    45.68000000    19.75000000
   C     72.54000000    45.00000000    20.62000000
   O     72.01000000    45.63000000    21.57000000
   O     72.09000000    43.86000000    20.37000000
   H     76.41000000    45.94000000    21.30000000
   H     75.37000000    47.19000000    18.75000000
   H     73.53000000    47.75000000    20.46000000
   H     74.30000000    46.69000000    21.56000000
   H     74.36000000    45.01000000    19.37000000
   H     73.03000000    46.06000000    18.89000000
   N     76.18000000    48.97000000    21.35000000
   C     76.73000000    50.25000000    21.77000000
   H     77.66800000    50.43100000    21.24600000
   H     76.02300000    51.04500000    21.53300000
   H     76.91200000    50.23300000    22.84500000
   H     76.18000000    48.22000000    22.03000000
  Ca     69.88000000    43.83000000    21.58000000
   O     71.38000000    43.18000000    23.58000000
   H     72.30000000    43.37000000    23.80000000
   H     71.07000000    42.65000000    24.32000000

Ca 1.70



