%chk=holoCaM_loop3_43.0.chk
%nprocshared=48
%mem=10GB
%nosave
#b3lyp/svp scf=(tight,noincore) Test 
#IOP(5/87=12) Density=Current Pop=(MK,readradii) iop(6/33=2) iop(6/42=6)

holoCaM_loop3_43.0 

   0   1
   C     85.86000000    32.96000000    26.37000000
   C     87.35000000    32.62000000    26.47000000
   O     87.66000000    31.51000000    26.88000000
   H     85.31100000    32.41400000    27.13700000
   H     85.72000000    34.03100000    26.51700000
   H     85.48700000    32.67600000    25.38600000
   N     88.23000000    33.58000000    26.15000000
   C     89.67000000    33.54000000    26.19000000
   C     89.94000000    33.95000000    27.63000000
   O     89.65000000    35.09000000    27.99000000
   C     90.32000000    34.55000000    25.24000000
   C     91.83000000    34.75000000    25.27000000
   O     92.32000000    35.75000000    24.71000000
   O     92.53000000    33.99000000    25.97000000
   H     87.82000000    34.35000000    25.65000000
   H     90.12000000    32.57000000    25.96000000
   H     89.76000000    35.48000000    25.33000000
   H     90.04000000    34.14000000    24.26000000
   N     90.45000000    33.10000000    28.52000000
   C     90.39000000    33.44000000    29.93000000
   C     91.54000000    34.30000000    30.44000000
   O     91.55000000    34.74000000    31.59000000
   C     90.24000000    32.21000000    30.82000000
   C     88.98000000    31.40000000    30.57000000
   C     87.63000000    32.12000000    30.61000000
   C     86.51000000    31.24000000    30.07000000
   N     85.26000000    32.02000000    30.01000000
   H     90.78000000    32.18000000    28.28000000
   H     89.53000000    34.07000000    30.17000000
   H     90.23000000    32.54000000    31.86000000
   H     91.12000000    31.58000000    30.70000000
   H     88.91000000    30.58000000    31.29000000
   H     89.09000000    30.92000000    29.61000000
   H     87.66000000    32.98000000    29.94000000
   H     87.51000000    32.42000000    31.65000000
   H     86.43000000    30.44000000    30.80000000
   H     86.79000000    30.66000000    29.19000000
   H     84.86000000    32.27000000    30.90000000
   H     85.41000000    32.87000000    29.48000000
   H     84.63000000    31.34000000    29.63000000
   N     92.36000000    34.78000000    29.50000000
   C     93.46000000    35.69000000    29.76000000
   C     93.79000000    36.80000000    28.77000000
   O     94.87000000    37.38000000    28.65000000
   C     94.71000000    34.94000000    30.22000000
   C     95.26000000    33.89000000    29.26000000
   O     94.47000000    33.24000000    28.55000000
   O     96.49000000    33.81000000    29.05000000
   H     92.31000000    34.35000000    28.59000000
   H     93.15000000    36.24000000    30.64000000
   H     94.55000000    34.35000000    31.13000000
   H     95.48000000    35.66000000    30.49000000
   N     92.90000000    36.97000000    27.80000000
   C     93.04000000    37.99000000    26.78000000
   C     94.28000000    37.97000000    25.91000000
   O     94.67000000    39.03000000    25.44000000
   H     92.01000000    36.49000000    27.86000000
   H     92.97000000    38.95000000    27.29000000
   H     92.22000000    37.89000000    26.07000000
   N     95.01000000    36.85000000    25.88000000
   C     96.26000000    36.70000000    25.16000000
   C     96.03000000    36.38000000    23.69000000
   O     96.98000000    36.30000000    22.92000000
   C     97.10000000    35.61000000    25.81000000
   C     96.73000000    34.19000000    25.41000000
   N     97.63000000    33.37000000    24.86000000
   O     95.56000000    33.81000000    25.51000000
   H     94.66000000    36.00000000    26.29000000
   H     96.81000000    37.64000000    25.29000000
   H     97.05000000    35.67000000    26.90000000
   H     98.16000000    35.66000000    25.55000000
   H     98.59000000    33.67000000    24.92000000
   H     97.30000000    32.47000000    24.52000000
   N     94.79000000    36.18000000    23.22000000
   C     94.38000000    36.18000000    21.83000000
   C     94.21000000    34.82000000    21.17000000
   O     94.03000000    34.62000000    19.97000000
   H     94.00000000    36.16000000    23.85000000
   H     95.20000000    36.68000000    21.31000000
   H     93.43000000    36.70000000    21.69000000
   N     94.21000000    33.76000000    21.98000000
   C     94.12000000    32.35000000    21.66000000
   C     93.20000000    31.70000000    22.68000000
   O     93.10000000    32.04000000    23.86000000
   C     95.51000000    31.72000000    21.75000000
   C     96.57000000    32.26000000    20.82000000
   C     97.35000000    33.32000000    21.30000000
   C     96.64000000    31.78000000    19.51000000
   C     98.37000000    33.85000000    20.50000000
   C     97.64000000    32.36000000    18.73000000
   C     98.52000000    33.36000000    19.19000000
   O     99.50000000    33.93000000    18.43000000
   H     94.31000000    34.08000000    22.93000000
   H     93.65000000    32.25000000    20.69000000
   H     95.52000000    30.64000000    21.63000000
   H     95.75000000    31.91000000    22.79000000
   H     97.25000000    33.69000000    22.31000000
   H     95.96000000    31.02000000    19.15000000
   H     98.95000000    34.72000000    20.79000000
   H     97.81000000    32.05000000    17.71000000
   H     99.41000000    33.66000000    17.51000000
   N     92.41000000    30.72000000    22.24000000
   C     91.66000000    29.81000000    23.09000000
   C     92.23000000    28.41000000    22.97000000
   O     92.64000000    28.01000000    21.88000000
   C     90.17000000    29.97000000    22.79000000
   C     89.64000000    31.36000000    23.15000000
   C     89.33000000    28.88000000    23.45000000
   C     88.15000000    31.56000000    22.93000000
   H     92.38000000    30.58000000    21.24000000
   H     91.89000000    30.08000000    24.12000000
   H     90.11000000    29.87000000    21.70000000
   H     90.25000000    32.15000000    22.72000000
   H     89.82000000    31.42000000    24.23000000
   H     89.64000000    27.88000000    23.17000000
   H     89.32000000    29.09000000    24.52000000
   H     88.35000000    28.94000000    22.97000000
   H     87.85000000    30.94000000    22.08000000
   H     87.57000000    31.28000000    23.81000000
   H     87.94000000    32.63000000    22.97000000
   N     92.19000000    27.70000000    24.10000000
   C     92.71000000    26.38000000    24.37000000
   C     91.74000000    25.34000000    24.90000000
   O     90.69000000    25.77000000    25.38000000
   C     93.85000000    26.48000000    25.39000000
   O     93.39000000    26.97000000    26.63000000
   H     91.78000000    28.14000000    24.91000000
   H     93.07000000    26.10000000    23.38000000
   H     94.68000000    27.12000000    25.07000000
   H     94.21000000    25.47000000    25.55000000
   H     93.56000000    27.91000000    26.58000000
   N     91.95000000    24.02000000    24.79000000
   C     91.06000000    22.98000000    25.27000000
   C     90.61000000    23.10000000    26.72000000
   O     89.49000000    22.78000000    27.11000000
   C     91.70000000    21.61000000    25.09000000
   H     92.73000000    23.74000000    24.22000000
   H     90.17000000    23.00000000    24.64000000
   H     91.04000000    20.87000000    25.52000000
   H     91.73000000    21.47000000    24.00000000
   H     92.61000000    21.63000000    25.69000000
   N     91.47000000    23.55000000    27.64000000
   C     90.95000000    23.84000000    28.96000000
   C     89.96000000    25.00000000    28.95000000
   O     88.97000000    25.02000000    29.67000000
   C     92.15000000    24.27000000    29.81000000
   H     92.34000000    23.99000000    27.37000000
   H     90.55000000    22.95000000    29.44000000
   H     92.47000000    25.23000000    29.42000000
   H     91.90000000    24.34000000    30.87000000
   H     92.91000000    23.49000000    29.86000000
   N     90.29000000    26.03000000    28.17000000
   C     89.34000000    27.13000000    28.08000000
   C     88.05000000    26.83000000    27.34000000
   O     86.98000000    27.26000000    27.78000000
   C     90.02000000    28.35000000    27.47000000
   C     91.27000000    28.81000000    28.21000000
   C     92.08000000    29.84000000    27.44000000
   O     91.82000000    31.06000000    27.56000000
   O     93.00000000    29.58000000    26.64000000
   H     91.07000000    25.99000000    27.53000000
   H     89.15000000    27.35000000    29.13000000
   H     89.31000000    29.18000000    27.39000000
   H     90.37000000    28.04000000    26.48000000
   H     91.94000000    27.99000000    28.48000000
   H     90.95000000    29.28000000    29.14000000
   N     88.09000000    25.81000000    26.47000000
   C     86.88000000    25.32000000    25.85000000
   H     86.11400000    26.09400000    25.88800000
   H     87.08300000    25.06100000    24.81100000
   H     86.53000000    24.43600000    26.38300000
   H     89.00000000    25.41000000    26.31000000
  Ca     94.04000000    32.05000000    26.45000000
   O     95.39000000    30.34000000    24.95000000
   H     95.31000000    29.89000000    24.11000000
   H     95.88000000    29.73000000    25.50000000

Ca 1.70



