%chk=holoCaM_loop3_30.0.chk
%nprocshared=48
%mem=10GB
%nosave
#b3lyp/svp scf=(tight,noincore) Test 
#IOP(5/87=12) Density=Current Pop=(MK,readradii) iop(6/33=2) iop(6/42=6)

holoCaM_loop3_30.0 

   0   1
   C     93.85000000    53.80000000     4.17200000
   C     94.99000000    54.70000000     3.73200000
   O     95.93000000    54.23000000     3.09200000
   H     92.97600000    53.99100000     3.54900000
   H     94.14900000    52.75700000     4.06800000
   H     93.60500000    54.00600000     5.21400000
   N     94.98000000    55.97000000     4.17200000
   C     95.95000000    56.93000000     3.70200000
   C     96.90000000    57.23000000     4.85200000
   O     96.47000000    57.88000000     5.81200000
   C     95.23000000    58.21000000     3.29200000
   C     96.19000000    59.35000000     3.02200000
   O     95.95000000    60.52000000     3.40200000
   O     97.23000000    59.10000000     2.37200000
   H     94.22000000    56.30000000     4.75200000
   H     96.51000000    56.50000000     2.86200000
   H     94.48000000    58.40000000     4.06200000
   H     94.76000000    58.00000000     2.33200000
   N     98.16000000    56.83000000     4.72200000
   C     99.20000000    56.85000000     5.73200000
   C    100.23000000    57.96000000     5.71200000
   O    101.17000000    58.00000000     6.50200000
   C     99.66000000    55.41000000     5.97200000
   C     98.54000000    54.48000000     6.40200000
   C     99.03000000    53.03000000     6.41200000
   C     98.17000000    52.04000000     7.18200000
   N     97.06000000    51.56000000     6.34200000
   H     98.31000000    56.36000000     3.84200000
   H     98.70000000    57.16000000     6.65200000
   H    100.45000000    55.32000000     6.71200000
   H    100.05000000    55.04000000     5.02200000
   H     97.75000000    54.51000000     5.65200000
   H     98.19000000    54.73000000     7.40200000
   H    100.02000000    53.04000000     6.87200000
   H     99.20000000    52.72000000     5.38200000
   H     97.96000000    52.52000000     8.14200000
   H     98.68000000    51.13000000     7.51200000
   H     96.28000000    52.20000000     6.36200000
   H     97.34000000    51.39000000     5.38200000
   H     96.63000000    50.71000000     6.69200000
   N    100.11000000    59.02000000     4.90200000
   C    101.05000000    60.11000000     4.72200000
   C    100.39000000    61.44000000     4.40200000
   O    100.96000000    62.49000000     4.10200000
   C    102.16000000    59.76000000     3.73200000
   C    101.70000000    59.58000000     2.29200000
   O    102.52000000    59.40000000     1.36200000
   O    100.50000000    59.66000000     1.97200000
   H     99.33000000    58.97000000     4.26200000
   H    101.62000000    60.41000000     5.60200000
   H    102.82000000    58.93000000     3.97200000
   H    102.85000000    60.60000000     3.71200000
   N     99.07000000    61.49000000     4.60200000
   C     98.31000000    62.71000000     4.74200000
   C     98.05000000    63.47000000     3.45200000
   O     97.87000000    64.67000000     3.62200000
   H     98.64000000    60.61000000     4.82200000
   H     98.78000000    63.28000000     5.55200000
   H     97.31000000    62.48000000     5.11200000
   N     97.93000000    62.79000000     2.30200000
   C     97.57000000    63.50000000     1.09200000
   C     96.15000000    63.20000000     0.63200000
   O     95.74000000    63.57000000    -0.46800000
   C     98.69000000    63.36000000     0.07200000
   C     98.41000000    62.19000000    -0.86800000
   N     98.27000000    62.43000000    -2.16800000
   O     98.32000000    61.07000000    -0.36800000
   H     98.02000000    61.79000000     2.30200000
   H     97.49000000    64.57000000     1.29200000
   H     99.66000000    63.29000000     0.56200000
   H     98.64000000    64.27000000    -0.52800000
   H     98.35000000    63.33000000    -2.61800000
   H     98.16000000    61.62000000    -2.76800000
   N     95.36000000    62.55000000     1.49200000
   C     94.03000000    62.14000000     1.08200000
   C     93.83000000    60.94000000     0.17200000
   O     92.93000000    60.13000000     0.38200000
   H     95.66000000    62.18000000     2.38200000
   H     93.55000000    63.05000000     0.70200000
   H     93.53000000    61.79000000     1.98200000
   N     94.60000000    60.88000000    -0.91800000
   C     94.56000000    59.87000000    -1.95800000
   C     95.39000000    58.64000000    -1.63800000
   O     96.33000000    58.68000000    -0.85800000
   C     95.00000000    60.54000000    -3.25800000
   C     94.33000000    61.82000000    -3.71800000
   C     95.07000000    62.75000000    -4.46800000
   C     93.09000000    62.20000000    -3.19800000
   C     94.57000000    64.01000000    -4.80800000
   C     92.60000000    63.47000000    -3.52800000
   C     93.26000000    64.35000000    -4.40800000
   O     92.68000000    65.53000000    -4.72800000
   H     95.26000000    61.65000000    -0.96800000
   H     93.53000000    59.56000000    -2.12800000
   H     94.89000000    59.88000000    -4.11800000
   H     96.05000000    60.79000000    -3.10800000
   H     96.08000000    62.46000000    -4.70800000
   H     92.50000000    61.51000000    -2.60800000
   H     95.23000000    64.70000000    -5.29800000
   H     91.59000000    63.67000000    -3.17800000
   H     91.84000000    65.52000000    -4.25800000
   N     94.98000000    57.53000000    -2.27800000
   C     95.59000000    56.22000000    -2.14800000
   C     96.56000000    55.98000000    -3.29800000
   O     96.17000000    56.17000000    -4.43800000
   C     94.57000000    55.12000000    -1.90800000
   C     93.43000000    55.51000000    -0.97800000
   C     95.25000000    53.89000000    -1.29800000
   C     93.84000000    56.07000000     0.38200000
   H     94.20000000    57.58000000    -2.90800000
   H     96.27000000    56.23000000    -1.29800000
   H     94.05000000    54.92000000    -2.84800000
   H     92.76000000    54.67000000    -0.76800000
   H     92.76000000    56.28000000    -1.37800000
   H     94.52000000    53.35000000    -0.69800000
   H     95.62000000    53.36000000    -2.17800000
   H     96.03000000    54.18000000    -0.59800000
   H     93.92000000    57.15000000     0.41200000
   H     92.99000000    55.81000000     1.02200000
   H     94.68000000    55.56000000     0.86200000
   N     97.75000000    55.47000000    -2.94800000
   C     98.84000000    54.97000000    -3.75800000
   C     99.02000000    53.46000000    -3.77800000
   O     98.37000000    52.79000000    -2.96800000
   C    100.15000000    55.74000000    -3.58800000
   O    100.58000000    55.53000000    -2.26800000
   H     97.94000000    55.47000000    -1.95800000
   H     98.54000000    55.17000000    -4.78800000
   H     99.92000000    56.79000000    -3.76800000
   H    100.91000000    55.39000000    -4.27800000
   H     99.86000000    55.73000000    -1.66800000
   N     99.91000000    52.95000000    -4.62800000
   C    100.16000000    51.53000000    -4.76800000
   C    100.51000000    50.87000000    -3.43800000
   O     99.86000000    49.88000000    -3.10800000
   C    101.28000000    51.29000000    -5.77800000
   H    100.42000000    53.53000000    -5.27800000
   H     99.29000000    50.95000000    -5.08800000
   H    101.55000000    50.23000000    -5.69800000
   H    101.11000000    51.72000000    -6.75800000
   H    102.18000000    51.83000000    -5.50800000
   N    101.49000000    51.37000000    -2.67800000
   C    102.04000000    50.61000000    -1.56800000
   C    100.93000000    50.49000000    -0.52800000
   O    100.88000000    49.59000000     0.30200000
   C    103.23000000    51.37000000    -0.98800000
   H    101.97000000    52.21000000    -2.96800000
   H    102.36000000    49.66000000    -2.00800000
   H    103.89000000    51.58000000    -1.82800000
   H    102.90000000    52.33000000    -0.59800000
   H    103.74000000    50.78000000    -0.22800000
   N    100.11000000    51.55000000    -0.48800000
   C     98.99000000    51.71000000     0.41200000
   C     97.93000000    50.69000000     0.00200000
   O     97.45000000    50.04000000     0.92200000
   C     98.42000000    53.12000000     0.42200000
   C     99.39000000    54.15000000     1.01200000
   C     98.89000000    55.58000000     0.85200000
   O     98.82000000    56.43000000     1.76200000
   O     98.53000000    56.01000000    -0.26800000
   H    100.16000000    52.20000000    -1.25800000
   H     99.37000000    51.44000000     1.39200000
   H     97.47000000    53.13000000     0.96200000
   H     98.28000000    53.46000000    -0.60800000
   H    100.35000000    54.04000000     0.51200000
   H     99.51000000    53.86000000     2.05200000
   N     97.36000000    50.66000000    -1.20800000
   C     96.54000000    49.57000000    -1.70800000
   H     95.61900000    49.97300000    -2.12900000
   H     97.08600000    49.02900000    -2.48100000
   H     96.29900000    48.89100000    -0.89000000
   H     97.83000000    51.31000000    -1.81800000
  Ca     98.64000000    58.62000000     0.42000000
   O     99.01000000    58.66000000    -2.18800000
   H     99.01000000    59.62000000    -2.19800000
   H     99.93000000    58.42000000    -2.32800000

Ca 1.70



