%chk=holoCaM_loop3_34.0.chk
%nprocshared=48
%mem=10GB
%nosave
#b3lyp/svp scf=(tight,noincore) Test 
#IOP(5/87=12) Density=Current Pop=(MK,readradii) iop(6/33=2) iop(6/42=6)

holoCaM_loop3_34.0 

   0   1
   C     48.56000000    51.74000000    43.80000000
   C     49.09000000    51.37000000    45.18000000
   O     48.32000000    51.27000000    46.14000000
   H     47.68000000    52.37400000    43.90700000
   H     49.32900000    52.27900000    43.24700000
   H     48.29000000    50.83300000    43.25900000
   N     50.40000000    51.18000000    45.32000000
   C     51.09000000    51.14000000    46.59000000
   C     51.47000000    52.53000000    47.10000000
   O     52.66000000    52.84000000    47.05000000
   C     52.33000000    50.28000000    46.38000000
   C     52.89000000    49.75000000    47.69000000
   O     52.39000000    50.09000000    48.78000000
   O     53.88000000    48.98000000    47.73000000
   H     50.93000000    51.12000000    44.46000000
   H     50.47000000    50.73000000    47.38000000
   H     53.04000000    50.65000000    45.64000000
   H     52.01000000    49.39000000    45.84000000
   N     50.51000000    53.27000000    47.67000000
   C     50.71000000    54.62000000    48.16000000
   C     51.90000000    54.85000000    49.08000000
   O     52.63000000    55.81000000    48.88000000
   C     49.42000000    55.04000000    48.86000000
   C     49.18000000    56.54000000    49.06000000
   C     47.83000000    56.64000000    49.76000000
   C     47.30000000    58.03000000    50.10000000
   N     48.09000000    58.74000000    51.11000000
   H     49.55000000    52.96000000    47.58000000
   H     50.99000000    55.26000000    47.32000000
   H     49.38000000    54.53000000    49.82000000
   H     48.61000000    54.68000000    48.23000000
   H     49.07000000    57.11000000    48.14000000
   H     50.02000000    56.87000000    49.66000000
   H     47.88000000    56.20000000    50.76000000
   H     47.04000000    56.16000000    49.17000000
   H     46.24000000    58.06000000    50.37000000
   H     47.43000000    58.60000000    49.18000000
   H     48.95000000    59.12000000    50.75000000
   H     47.63000000    59.61000000    51.35000000
   H     48.24000000    58.27000000    51.99000000
   N     52.08000000    54.02000000    50.11000000
   C     53.18000000    54.09000000    51.06000000
   C     54.43000000    53.30000000    50.72000000
   O     55.41000000    53.36000000    51.46000000
   C     52.67000000    53.62000000    52.42000000
   C     52.06000000    52.24000000    52.54000000
   O     52.37000000    51.38000000    51.69000000
   O     51.41000000    51.89000000    53.56000000
   H     51.49000000    53.21000000    50.19000000
   H     53.42000000    55.15000000    51.07000000
   H     51.82000000    54.27000000    52.64000000
   H     53.38000000    53.83000000    53.22000000
   N     54.39000000    52.57000000    49.61000000
   C     55.49000000    51.89000000    48.97000000
   C     56.12000000    50.73000000    49.72000000
   O     57.35000000    50.62000000    49.72000000
   H     53.54000000    52.47000000    49.06000000
   H     56.31000000    52.58000000    48.76000000
   H     55.09000000    51.54000000    48.02000000
   N     55.28000000    50.02000000    50.48000000
   C     55.75000000    49.01000000    51.40000000
   C     55.84000000    47.61000000    50.80000000
   O     56.15000000    46.65000000    51.50000000
   C     54.96000000    49.15000000    52.70000000
   C     53.56000000    48.53000000    52.73000000
   N     52.89000000    48.33000000    53.87000000
   O     52.95000000    48.27000000    51.70000000
   H     54.30000000    50.28000000    50.44000000
   H     56.77000000    49.29000000    51.65000000
   H     54.80000000    50.20000000    52.95000000
   H     55.59000000    48.80000000    53.52000000
   H     53.23000000    48.77000000    54.71000000
   H     51.99000000    47.92000000    53.69000000
   N     55.59000000    47.46000000    49.50000000
   C     55.63000000    46.17000000    48.83000000
   C     54.31000000    45.46000000    48.58000000
   O     54.36000000    44.25000000    48.34000000
   H     55.17000000    48.20000000    48.96000000
   H     56.29000000    45.51000000    49.40000000
   H     56.05000000    46.37000000    47.85000000
   N     53.14000000    46.07000000    48.73000000
   C     51.85000000    45.41000000    48.80000000
   C     50.78000000    46.49000000    48.66000000
   O     50.97000000    47.60000000    49.16000000
   C     51.60000000    44.81000000    50.17000000
   C     52.44000000    43.64000000    50.60000000
   C     53.59000000    43.83000000    51.38000000
   C     52.02000000    42.33000000    50.31000000
   C     54.42000000    42.77000000    51.77000000
   C     52.84000000    41.27000000    50.69000000
   C     54.03000000    41.46000000    51.43000000
   O     54.84000000    40.45000000    51.84000000
   H     53.11000000    47.08000000    48.71000000
   H     51.67000000    44.74000000    47.96000000
   H     50.56000000    44.49000000    50.27000000
   H     51.75000000    45.65000000    50.85000000
   H     53.87000000    44.85000000    51.62000000
   H     51.04000000    42.20000000    49.86000000
   H     55.38000000    42.93000000    52.24000000
   H     52.52000000    40.26000000    50.49000000
   H     54.38000000    39.63000000    51.61000000
   N     49.74000000    46.12000000    47.91000000
   C     48.58000000    46.99000000    47.81000000
   C     47.58000000    46.41000000    48.80000000
   O     47.36000000    45.21000000    48.88000000
   C     48.10000000    47.07000000    46.36000000
   C     49.11000000    47.85000000    45.51000000
   C     46.73000000    47.72000000    46.16000000
   C     49.09000000    47.27000000    44.10000000
   H     49.72000000    45.28000000    47.35000000
   H     48.88000000    47.99000000    48.12000000
   H     48.08000000    46.02000000    46.10000000
   H     50.14000000    47.82000000    45.87000000
   H     48.89000000    48.91000000    45.48000000
   H     46.42000000    47.57000000    45.13000000
   H     45.96000000    47.35000000    46.84000000
   H     46.71000000    48.80000000    46.27000000
   H     48.08000000    47.47000000    43.75000000
   H     49.84000000    47.83000000    43.54000000
   H     49.29000000    46.20000000    44.14000000
   N     46.90000000    47.27000000    49.56000000
   C     45.81000000    46.97000000    50.47000000
   C     44.44000000    47.37000000    49.95000000
   O     44.47000000    48.36000000    49.23000000
   C     46.05000000    47.76000000    51.76000000
   O     46.24000000    49.14000000    51.57000000
   H     47.14000000    48.24000000    49.40000000
   H     45.88000000    45.90000000    50.71000000
   H     46.91000000    47.39000000    52.32000000
   H     45.24000000    47.57000000    52.45000000
   H     47.10000000    49.32000000    51.20000000
   N     43.35000000    46.75000000    50.42000000
   C     41.98000000    47.22000000    50.40000000
   C     41.83000000    48.71000000    50.63000000
   O     41.29000000    49.46000000    49.81000000
   C     41.29000000    46.46000000    51.53000000
   H     43.46000000    45.87000000    50.90000000
   H     41.47000000    46.97000000    49.47000000
   H     41.52000000    45.40000000    51.43000000
   H     41.69000000    46.78000000    52.49000000
   H     40.22000000    46.61000000    51.41000000
   N     42.45000000    49.24000000    51.69000000
   C     42.41000000    50.68000000    51.90000000
   C     43.04000000    51.59000000    50.86000000
   O     42.53000000    52.67000000    50.58000000
   C     42.99000000    51.05000000    53.26000000
   H     43.00000000    48.72000000    52.35000000
   H     41.35000000    50.88000000    52.04000000
   H     42.67000000    50.41000000    54.08000000
   H     44.08000000    51.07000000    53.21000000
   H     42.79000000    52.11000000    53.41000000
   N     44.17000000    51.18000000    50.28000000
   C     44.71000000    51.93000000    49.17000000
   C     43.86000000    51.73000000    47.92000000
   O     43.73000000    52.74000000    47.23000000
   C     46.08000000    51.35000000    48.81000000
   C     47.08000000    51.77000000    49.88000000
   C     48.38000000    50.97000000    49.90000000
   O     48.38000000    49.74000000    50.11000000
   O     49.47000000    51.56000000    49.79000000
   H     44.51000000    50.25000000    50.44000000
   H     44.73000000    52.95000000    49.53000000
   H     46.35000000    51.73000000    47.83000000
   H     46.02000000    50.26000000    48.91000000
   H     46.66000000    51.65000000    50.87000000
   H     47.37000000    52.81000000    49.76000000
   N     43.25000000    50.57000000    47.67000000
   C     42.52000000    50.26000000    46.46000000
   H     41.62100000    50.87400000    46.41100000
   H     43.14800000    50.46600000    45.59300000
   H     42.24000000    49.20700000    46.46400000
   H     43.43000000    49.84000000    48.35000000
  Ca     50.87000000    49.65000000    50.80000000
   O     49.37000000    50.32000000    52.79000000
   H     49.21000000    49.83000000    53.60000000
   H     49.72000000    51.16000000    53.09000000

Ca 1.70



