%chk=holoCaM_loop3_51.0.chk
%nprocshared=48
%mem=10GB
%nosave
#b3lyp/svp scf=(tight,noincore) Test 
#IOP(5/87=12) Density=Current Pop=(MK,readradii) iop(6/33=2) iop(6/42=6)

holoCaM_loop3_51.0 

   0   1
   C     69.91000000    52.46000000    91.24000000
   C     69.80000000    52.94000000    92.69000000
   O     70.05000000    52.13000000    93.58000000
   H     70.96000000    52.42300000    90.94900000
   H     69.47400000    51.46500000    91.15200000
   H     69.37600000    53.15000000    90.58700000
   N     69.29000000    54.13000000    92.98000000
   C     69.21000000    54.72000000    94.30000000
   C     68.03000000    54.19000000    95.10000000
   O     66.91000000    54.70000000    95.10000000
   C     69.12000000    56.24000000    94.17000000
   C     69.16000000    57.01000000    95.48000000
   O     69.14000000    58.26000000    95.37000000
   O     69.22000000    56.44000000    96.59000000
   H     68.94000000    54.64000000    92.17000000
   H     70.08000000    54.51000000    94.91000000
   H     68.21000000    56.50000000    93.62000000
   H     70.03000000    56.57000000    93.67000000
   N     68.17000000    53.02000000    95.74000000
   C     67.11000000    52.28000000    96.39000000
   C     66.38000000    52.85000000    97.60000000
   O     65.38000000    52.26000000    98.01000000
   C     67.59000000    50.89000000    96.79000000
   C     68.36000000    50.09000000    95.74000000
   C     67.57000000    49.89000000    94.46000000
   C     68.28000000    49.04000000    93.41000000
   N     67.32000000    48.77000000    92.33000000
   H     69.02000000    52.49000000    95.63000000
   H     66.22000000    52.24000000    95.77000000
   H     66.79000000    50.24000000    97.13000000
   H     68.29000000    51.03000000    97.62000000
   H     68.44000000    49.11000000    96.20000000
   H     69.39000000    50.40000000    95.52000000
   H     67.42000000    50.87000000    93.99000000
   H     66.59000000    49.50000000    94.73000000
   H     68.64000000    48.10000000    93.83000000
   H     69.15000000    49.56000000    93.01000000
   H     66.43000000    48.45000000    92.70000000
   H     67.11000000    49.52000000    91.69000000
   H     67.52000000    47.94000000    91.80000000
   N     66.87000000    53.95000000    98.18000000
   C     66.19000000    54.72000000    99.21000000
   C     66.04000000    56.16000000    98.76000000
   O     65.57000000    56.97000000    99.56000000
   C     66.96000000    54.57000000   100.52000000
   C     68.38000000    55.12000000   100.47000000
   O     69.08000000    55.11000000   101.51000000
   O     69.01000000    55.34000000    99.41000000
   H     67.76000000    54.31000000    97.87000000
   H     65.19000000    54.33000000    99.39000000
   H     67.11000000    53.51000000   100.69000000
   H     66.45000000    55.05000000   101.36000000
   N     66.37000000    56.54000000    97.52000000
   C     65.95000000    57.79000000    96.92000000
   C     66.66000000    59.04000000    97.42000000
   O     66.11000000    60.14000000    97.40000000
   H     66.78000000    55.79000000    96.99000000
   H     64.90000000    58.00000000    97.11000000
   H     66.05000000    57.73000000    95.83000000
   N     67.86000000    58.88000000    97.98000000
   C     68.48000000    59.94000000    98.75000000
   C     69.45000000    60.85000000    98.03000000
   O     70.15000000    61.67000000    98.63000000
   C     69.07000000    59.34000000   100.03000000
   C     70.41000000    58.64000000    99.86000000
   N     71.16000000    58.27000000   100.90000000
   O     70.76000000    58.29000000    98.73000000
   H     68.34000000    58.00000000    97.87000000
   H     67.70000000    60.64000000    99.04000000
   H     68.39000000    58.66000000   100.54000000
   H     69.29000000    60.13000000   100.74000000
   H     70.86000000    58.53000000   101.82000000
   H     72.06000000    57.82000000   100.74000000
   N     69.53000000    60.67000000    96.71000000
   C     70.34000000    61.39000000    95.74000000
   C     71.64000000    60.70000000    95.36000000
   O     72.26000000    61.33000000    94.51000000
   H     69.05000000    59.87000000    96.32000000
   H     70.47000000    62.44000000    96.02000000
   H     69.83000000    61.30000000    94.79000000
   N     72.06000000    59.60000000    95.99000000
   C     73.35000000    58.98000000    95.78000000
   C     73.14000000    57.49000000    95.54000000
   O     72.34000000    56.80000000    96.16000000
   C     74.27000000    59.33000000    96.94000000
   C     74.36000000    60.79000000    97.32000000
   C     73.67000000    61.14000000    98.49000000
   C     75.00000000    61.74000000    96.53000000
   C     73.64000000    62.51000000    98.81000000
   C     74.99000000    63.10000000    96.86000000
   C     74.30000000    63.47000000    98.03000000
   O     74.20000000    64.79000000    98.38000000
   H     71.44000000    59.17000000    96.68000000
   H     73.79000000    59.43000000    94.88000000
   H     75.29000000    59.02000000    96.70000000
   H     74.02000000    58.66000000    97.76000000
   H     73.11000000    60.39000000    99.02000000
   H     75.57000000    61.44000000    95.66000000
   H     73.14000000    62.79000000    99.73000000
   H     75.47000000    63.75000000    96.14000000
   H     74.46000000    65.39000000    97.68000000
   N     74.06000000    56.90000000    94.76000000
   C     74.15000000    55.46000000    94.66000000
   C     75.41000000    54.96000000    95.36000000
   O     76.46000000    55.58000000    95.16000000
   C     74.05000000    54.93000000    93.24000000
   C     72.85000000    55.49000000    92.48000000
   C     74.13000000    53.41000000    93.15000000
   C     73.00000000    55.63000000    90.96000000
   H     74.83000000    57.44000000    94.39000000
   H     73.25000000    55.06000000    95.12000000
   H     74.95000000    55.31000000    92.76000000
   H     72.60000000    56.52000000    92.72000000
   H     71.90000000    54.98000000    92.65000000
   H     74.24000000    53.20000000    92.09000000
   H     75.05000000    53.01000000    93.59000000
   H     73.24000000    52.93000000    93.56000000
   H     73.74000000    56.38000000    90.68000000
   H     73.50000000    54.72000000    90.61000000
   H     72.03000000    55.87000000    90.54000000
   N     75.34000000    53.85000000    96.10000000
   C     76.39000000    53.29000000    96.92000000
   C     76.76000000    51.87000000    96.50000000
   O     76.08000000    51.24000000    95.70000000
   C     75.88000000    53.29000000    98.36000000
   O     74.75000000    52.47000000    98.49000000
   H     74.51000000    53.28000000    96.03000000
   H     77.29000000    53.91000000    96.87000000
   H     75.55000000    54.26000000    98.73000000
   H     76.61000000    52.88000000    99.06000000
   H     74.03000000    52.88000000    98.00000000
   N     77.81000000    51.33000000    97.13000000
   C     78.25000000    50.03000000    96.67000000
   C     77.23000000    48.91000000    96.76000000
   O     77.14000000    48.06000000    95.87000000
   C     79.58000000    49.82000000    97.40000000
   H     78.32000000    51.92000000    97.78000000
   H     78.49000000    50.10000000    95.61000000
   H     80.15000000    48.96000000    97.06000000
   H     80.09000000    50.73000000    97.09000000
   H     79.42000000    49.80000000    98.48000000
   N     76.36000000    48.91000000    97.77000000
   C     75.31000000    47.92000000    97.94000000
   C     74.30000000    47.91000000    96.81000000
   O     73.85000000    46.88000000    96.31000000
   C     74.67000000    48.15000000    99.31000000
   H     76.59000000    49.54000000    98.52000000
   H     75.82000000    46.96000000    97.88000000
   H     75.30000000    47.74000000   100.09000000
   H     74.49000000    49.22000000    99.44000000
   H     73.64000000    47.80000000    99.38000000
   N     74.06000000    49.18000000    96.46000000
   C     73.10000000    49.56000000    95.44000000
   C     73.52000000    49.27000000    94.00000000
   O     72.72000000    48.80000000    93.19000000
   C     72.65000000    51.01000000    95.61000000
   C     72.01000000    51.30000000    96.96000000
   C     71.72000000    52.77000000    97.25000000
   O     72.58000000    53.66000000    97.41000000
   O     70.55000000    53.15000000    97.45000000
   H     74.60000000    49.92000000    96.88000000
   H     72.27000000    48.87000000    95.61000000
   H     72.08000000    51.32000000    94.73000000
   H     73.47000000    51.73000000    95.52000000
   H     72.60000000    50.92000000    97.79000000
   H     71.05000000    50.79000000    96.93000000
   N     74.81000000    49.42000000    93.71000000
   C     75.42000000    49.06000000    92.44000000
   H     76.43200000    48.69400000    92.61400000
   H     74.82900000    48.27900000    91.96100000
   H     75.45700000    49.93600000    91.79300000
   H     75.32000000    49.92000000    94.42000000
  Ca     71.12000000    55.62000000    98.17000000
   O     71.40000000    54.24000000   100.50400000
   H     71.94000000    54.08000000   101.28400000
   H     70.50000000    54.27000000   100.84400000

Ca 1.70



