%chk=loop1.apoCaM-CA-Ng.Init293.run6.water3.chk
%nprocshared=20
%mem=10GB
%nosave
#b3lyp/svp scf=(tight,noincore,xqc) Test 
#IOP(5/87=12) Density=Current Pop=(MK,readradii) iop(6/33=2) iop(6/42=6)

loop1.apoCaM-CA-Ng.Init293.run6.water3 

   0  1 
   C     39.31000000    22.72000000    32.06000000
   C     38.66000000    21.69000000    31.16000000
   O     38.17000000    21.94000000    30.06000000
   H     40.22600000    23.08300000    31.59400000
   H     38.62500000    23.55400000    32.21200000
   H     39.54800000    22.26500000    33.02100000
   N     38.63000000    20.43000000    31.60000000
   C     38.19000000    19.27000000    30.86000000
   C     36.68000000    19.14000000    30.78000000
   O     36.15000000    18.03000000    30.82000000
   C     38.92000000    18.02000000    31.35000000
   C     38.91000000    17.85000000    32.86000000
   O     39.38000000    18.75000000    33.59000000
   O     38.32000000    16.92000000    33.44000000
   H     39.19000000    20.23000000    32.42000000
   H     38.55000000    19.36000000    29.83000000
   H     39.97000000    17.99000000    31.05000000
   H     38.39000000    17.19000000    30.89000000
   N     35.95000000    20.26000000    30.86000000
   C     34.51000000    20.20000000    30.82000000
   C     33.82000000    21.09000000    29.80000000
   O     33.96000000    22.31000000    29.80000000
   C     33.92000000    20.48000000    32.21000000
   C     34.30000000    19.47000000    33.28000000
   C     33.75000000    19.97000000    34.62000000
   C     34.00000000    18.91000000    35.69000000
   N     33.22000000    17.67000000    35.54000000
   H     36.43000000    21.14000000    30.93000000
   H     34.19000000    19.18000000    30.62000000
   H     32.84000000    20.53000000    32.11000000
   H     34.37000000    21.40000000    32.58000000
   H     35.39000000    19.39000000    33.28000000
   H     33.93000000    18.47000000    33.04000000
   H     32.69000000    20.22000000    34.59000000
   H     34.27000000    20.87000000    34.93000000
   H     33.98000000    19.30000000    36.70000000
   H     35.03000000    18.54000000    35.67000000
   H     33.68000000    17.16000000    34.80000000
   H     33.25000000    17.07000000    36.36000000
   H     32.24000000    17.85000000    35.41000000
   N     33.16000000    20.60000000    28.74000000
   C     32.98000000    19.24000000    28.27000000
   C     32.04000000    18.37000000    29.10000000
   O     31.75000000    18.66000000    30.26000000
   C     34.26000000    18.57000000    27.78000000
   C     35.16000000    19.36000000    26.84000000
   O     36.29000000    19.68000000    27.28000000
   O     34.72000000    19.96000000    25.84000000
   H     32.82000000    21.26000000    28.05000000
   H     32.39000000    19.43000000    27.37000000
   H     33.96000000    17.61000000    27.37000000
   H     34.90000000    18.27000000    28.60000000
   N     31.45000000    17.31000000    28.55000000
   C     31.46000000    16.84000000    27.18000000
   C     31.30000000    15.35000000    26.90000000
   O     30.41000000    14.74000000    27.50000000
   H     30.82000000    16.86000000    29.20000000
   H     32.21000000    17.26000000    26.51000000
   H     30.58000000    17.35000000    26.80000000
   N     32.11000000    14.64000000    26.12000000
   C     33.37000000    14.97000000    25.48000000
   C     34.50000000    15.09000000    26.50000000
   O     34.41000000    14.54000000    27.59000000
   C     33.69000000    14.00000000    24.35000000
   C     32.47000000    13.33000000    23.73000000
   O     32.06000000    12.21000000    24.11000000
   O     31.88000000    13.84000000    22.75000000
   H     31.81000000    13.68000000    26.02000000
   H     33.20000000    15.92000000    24.98000000
   H     34.31000000    13.20000000    24.75000000
   H     34.31000000    14.45000000    23.58000000
   N     35.55000000    15.86000000    26.19000000
   C     36.72000000    16.05000000    27.02000000
   C     37.99000000    16.71000000    26.50000000
   O     39.08000000    16.36000000    26.94000000
   H     35.54000000    16.30000000    25.28000000
   H     37.00000000    15.04000000    27.34000000
   H     36.51000000    16.55000000    27.96000000
   N     37.85000000    17.64000000    25.55000000
   C     38.96000000    18.33000000    24.91000000
   C     39.49000000    19.48000000    25.76000000
   O     38.82000000    20.48000000    26.00000000
   C     38.51000000    18.81000000    23.53000000
   C     39.63000000    19.30000000    22.62000000
   O     37.50000000    19.79000000    23.64000000
   H     36.90000000    17.91000000    25.35000000
   H     39.79000000    17.67000000    24.65000000
   H     37.99000000    17.96000000    23.10000000
   H     37.18000000    19.92000000    22.75000000
   H     40.21000000    20.07000000    23.14000000
   H     40.27000000    18.44000000    22.41000000
   H     39.23000000    19.56000000    21.64000000
   N     40.78000000    19.43000000    26.08000000
   C     41.36000000    20.41000000    26.98000000
   C     42.72000000    20.73000000    26.39000000
   O     43.73000000    20.06000000    26.63000000
   C     41.41000000    19.95000000    28.43000000
   C     42.13000000    20.98000000    29.30000000
   C     41.95000000    18.55000000    28.74000000
   C     41.96000000    22.47000000    29.02000000
   H     41.31000000    18.57000000    25.96000000
   H     40.86000000    21.38000000    26.97000000
   H     40.37000000    19.84000000    28.72000000
   H     43.18000000    20.72000000    29.23000000
   H     41.91000000    20.68000000    30.33000000
   H     41.92000000    18.33000000    29.81000000
   H     41.38000000    17.81000000    28.18000000
   H     42.99000000    18.59000000    28.42000000
   H     42.24000000    23.10000000    29.87000000
   H     42.50000000    22.84000000    28.16000000
   H     40.95000000    22.73000000    28.68000000
   N     42.75000000    21.73000000    25.50000000
   C     43.92000000    22.15000000    24.75000000
   C     43.87000000    23.59000000    24.26000000
   O     44.93000000    24.07000000    23.87000000
   C     44.16000000    21.31000000    23.50000000
   C     43.16000000    21.24000000    22.36000000
   O     44.36000000    19.98000000    23.93000000
   H     41.88000000    22.13000000    25.20000000
   H     44.77000000    22.18000000    25.43000000
   H     45.07000000    21.67000000    23.03000000
   H     44.09000000    19.86000000    24.85000000
   H     42.92000000    22.25000000    22.02000000
   H     43.41000000    20.50000000    21.60000000
   H     42.18000000    20.98000000    22.76000000
   N     42.80000000    24.33000000    24.57000000
   C     42.65000000    25.73000000    24.22000000
   C     42.22000000    25.79000000    22.76000000
   O     42.43000000    24.85000000    22.00000000
   C     43.85000000    26.61000000    24.53000000
   C     44.44000000    26.41000000    25.92000000
   O     43.35000000    27.93000000    24.54000000
   H     42.00000000    23.79000000    24.88000000
   H     41.79000000    26.06000000    24.81000000
   H     44.66000000    26.48000000    23.81000000
   H     43.93000000    28.51000000    25.03000000
   H     44.86000000    25.40000000    25.98000000
   H     45.26000000    27.10000000    26.10000000
   H     43.63000000    26.63000000    26.62000000
   N     41.67000000    26.91000000    22.29000000
   C     41.39000000    27.25000000    20.92000000
   C     39.92000000    27.24000000    20.49000000
   O     39.69000000    27.16000000    19.28000000
   C     42.04000000    28.59000000    20.61000000
   C     43.57000000    28.53000000    20.51000000
   C     44.15000000    29.82000000    19.94000000
   C     43.70000000    30.21000000    18.53000000
   N     44.38000000    31.42000000    18.04000000
   H     41.52000000    27.63000000    22.98000000
   H     41.84000000    26.52000000    20.25000000
   H     41.72000000    29.39000000    21.28000000
   H     41.68000000    28.85000000    19.61000000
   H     43.85000000    27.67000000    19.91000000
   H     43.93000000    28.36000000    21.53000000
   H     45.23000000    29.66000000    19.99000000
   H     44.00000000    30.68000000    20.59000000
   H     42.65000000    30.51000000    18.64000000
   H     43.91000000    29.42000000    17.82000000
   H     44.11000000    32.22000000    18.59000000
   H     45.38000000    31.31000000    18.12000000
   H     44.26000000    31.63000000    17.07000000
   N     38.86000000    27.31000000    21.29000000
   C     38.67000000    27.55000000    22.70000000
   C     39.48000000    28.76000000    23.16000000
   O     40.26000000    28.70000000    24.10000000
   C     38.76000000    26.22000000    23.44000000
   C     37.66000000    25.30000000    22.92000000
   C     37.50000000    24.11000000    23.86000000
   O     37.11000000    24.20000000    25.05000000
   O     37.75000000    22.98000000    23.38000000
   H     37.98000000    27.23000000    20.79000000
   H     37.64000000    27.89000000    22.80000000
   H     38.61000000    26.54000000    24.47000000
   H     39.68000000    25.67000000    23.23000000
   H     37.86000000    25.04000000    21.88000000
   H     36.71000000    25.81000000    23.06000000
   N     39.07000000    29.91000000    22.62000000
   C     39.43000000    31.24000000    23.08000000
   H     40.34500000    31.56100000    22.58200000
   H     38.62500000    31.93700000    22.84500000
   H     39.59100000    31.22100000    24.15800000
   H     38.38000000    29.83000000    21.89000000
  Ca     36.61000000    21.65000000    25.42000000
   O     34.93000000    22.95000000    27.04000000
   H     35.00000000    23.07000000    27.99000000
   H     34.10000000    23.36000000    26.80000000
   O     37.96000000    22.75000000    27.49000000
   H     37.33000000    23.39000000    27.82000000
   H     38.10000000    22.16000000    28.23000000
   O     34.92000000    21.60000000    23.42000000
   H     35.08000000    22.21000000    22.71000000
   H     33.97000000    21.66000000    23.58000000

Ca 1.00



