%chk=loop3.apoCaM-CA-Ng.Init295.run35.water3.chk
%nprocshared=20
%mem=10GB
%nosave
#b3lyp/svp scf=(tight,noincore,xqc) Test 
#IOP(5/87=12) Density=Current Pop=(MK,readradii) iop(6/33=2) iop(6/42=6)

loop3.apoCaM-CA-Ng.Init295.run35.water3 

   0  1 
   C    100.35000000    39.16000000    65.29000000
   C    100.85000000    38.31000000    66.46000000
   O    101.31000000    38.90000000    67.43000000
   H     99.46200000    39.71300000    65.59700000
   H    101.12900000    39.86100000    64.99100000
   H    100.10100000    38.51200000    64.45000000
   N    100.56000000    37.01000000    66.50000000
   C    100.68000000    36.16000000    67.67000000
   C    102.10000000    35.61000000    67.74000000
   O    102.54000000    34.99000000    66.77000000
   C     99.54000000    35.17000000    67.84000000
   C     99.68000000    34.34000000    69.11000000
   O     98.88000000    34.55000000    70.05000000
   O    100.62000000    33.53000000    69.25000000
   H    100.26000000    36.56000000    65.65000000
   H    100.65000000    36.85000000    68.52000000
   H     99.43000000    34.52000000    66.97000000
   H     98.64000000    35.78000000    67.89000000
   N    102.84000000    35.78000000    68.83000000
   C    104.15000000    35.21000000    69.08000000
   C    104.33000000    33.70000000    69.12000000
   O    105.47000000    33.25000000    69.19000000
   C    104.84000000    35.91000000    70.25000000
   C    105.16000000    37.39000000    70.08000000
   C    105.71000000    38.10000000    71.31000000
   C    107.16000000    37.88000000    71.74000000
   N    107.42000000    38.63000000    72.98000000
   H    102.37000000    36.34000000    69.53000000
   H    104.67000000    35.40000000    68.14000000
   H    105.81000000    35.44000000    70.40000000
   H    104.28000000    35.69000000    71.16000000
   H    104.26000000    37.94000000    69.79000000
   H    105.89000000    37.49000000    69.28000000
   H    105.12000000    37.87000000    72.20000000
   H    105.51000000    39.14000000    71.05000000
   H    107.91000000    38.08000000    70.98000000
   H    107.13000000    36.82000000    71.98000000
   H    107.47000000    39.63000000    72.90000000
   H    106.72000000    38.47000000    73.69000000
   H    108.26000000    38.25000000    73.40000000
   N    103.27000000    32.88000000    69.06000000
   C    103.47000000    31.48000000    68.77000000
   C    102.70000000    30.90000000    67.59000000
   O    102.99000000    29.79000000    67.16000000
   C    103.27000000    30.55000000    69.96000000
   C    102.00000000    30.75000000    70.76000000
   O    100.87000000    30.63000000    70.24000000
   O    101.94000000    31.30000000    71.89000000
   H    102.33000000    33.26000000    69.10000000
   H    104.50000000    31.28000000    68.45000000
   H    104.14000000    30.67000000    70.60000000
   H    103.28000000    29.52000000    69.60000000
   N    101.57000000    31.52000000    67.23000000
   C    100.65000000    31.36000000    66.12000000
   C     99.25000000    30.91000000    66.50000000
   O     98.42000000    30.69000000    65.62000000
   H    101.36000000    32.23000000    67.91000000
   H    100.99000000    30.68000000    65.34000000
   H    100.54000000    32.35000000    65.67000000
   N     98.88000000    30.69000000    67.77000000
   C     97.47000000    30.64000000    68.10000000
   C     97.09000000    31.84000000    68.95000000
   O     97.67000000    32.00000000    70.02000000
   C     97.21000000    29.26000000    68.70000000
   C     95.72000000    28.95000000    68.68000000
   N     95.47000000    27.68000000    68.97000000
   O     94.83000000    29.73000000    68.37000000
   H     99.50000000    30.89000000    68.54000000
   H     96.78000000    30.68000000    67.26000000
   H     97.52000000    29.27000000    69.74000000
   H     97.69000000    28.44000000    68.16000000
   H     96.12000000    27.01000000    69.35000000
   H     94.57000000    27.24000000    68.82000000
   N     96.04000000    32.60000000    68.63000000
   C     95.65000000    33.89000000    69.17000000
   C     95.24000000    33.96000000    70.63000000
   O     95.01000000    35.06000000    71.14000000
   H     95.42000000    32.22000000    67.94000000
   H     94.89000000    34.41000000    68.58000000
   H     96.48000000    34.59000000    69.03000000
   N     95.16000000    32.81000000    71.30000000
   C     95.09000000    32.65000000    72.74000000
   C     96.27000000    33.29000000    73.45000000
   O     97.46000000    33.08000000    73.22000000
   C     94.81000000    31.19000000    73.10000000
   C     93.51000000    30.68000000    72.52000000
   C     92.36000000    30.84000000    73.31000000
   C     93.51000000    30.00000000    71.30000000
   C     91.20000000    30.21000000    72.87000000
   C     92.31000000    29.41000000    70.88000000
   C     91.15000000    29.46000000    71.68000000
   O     89.99000000    28.87000000    71.28000000
   H     95.47000000    31.97000000    70.85000000
   H     94.19000000    33.17000000    73.05000000
   H     94.72000000    31.08000000    74.18000000
   H     95.67000000    30.61000000    72.78000000
   H     92.37000000    31.47000000    74.19000000
   H     94.45000000    29.98000000    70.76000000
   H     90.33000000    30.26000000    73.51000000
   H     92.34000000    28.79000000    70.00000000
   H     89.97000000    28.64000000    70.35000000
   N     95.92000000    34.10000000    74.45000000
   C     96.70000000    34.82000000    75.45000000
   C     97.70000000    34.05000000    76.29000000
   O     98.19000000    32.98000000    75.93000000
   C     97.22000000    36.12000000    74.84000000
   C     96.31000000    36.93000000    73.92000000
   C     98.48000000    35.94000000    73.99000000
   C     94.99000000    37.31000000    74.59000000
   H     94.92000000    34.12000000    74.57000000
   H     96.02000000    35.14000000    76.23000000
   H     97.49000000    36.71000000    75.71000000
   H     96.08000000    36.39000000    73.00000000
   H     96.86000000    37.84000000    73.70000000
   H     98.20000000    35.42000000    73.07000000
   H     98.88000000    36.90000000    73.68000000
   H     99.23000000    35.35000000    74.52000000
   H     95.19000000    38.05000000    75.37000000
   H     94.32000000    37.60000000    73.78000000
   H     94.57000000    36.45000000    75.12000000
   N     97.92000000    34.57000000    77.50000000
   C     99.03000000    34.12000000    78.32000000
   C     98.68000000    33.86000000    79.78000000
   O     99.37000000    33.08000000    80.43000000
   C    100.06000000    35.24000000    78.24000000
   O     99.88000000    36.42000000    79.00000000
   H     97.60000000    35.51000000    77.67000000
   H     99.56000000    33.29000000    77.87000000
   H    100.14000000    35.49000000    77.18000000
   H    101.04000000    34.86000000    78.53000000
   H    100.69000000    36.88000000    78.80000000
   N     97.58000000    34.44000000    80.27000000
   C     97.01000000    34.38000000    81.60000000
   C     98.06000000    34.17000000    82.68000000
   O     98.04000000    33.18000000    83.40000000
   C     95.82000000    33.42000000    81.67000000
   H     97.23000000    35.18000000    79.67000000
   H     96.62000000    35.39000000    81.62000000
   H     95.12000000    33.77000000    80.92000000
   H     96.18000000    32.43000000    81.39000000
   H     95.44000000    33.43000000    82.69000000
   N     98.98000000    35.09000000    83.00000000
   C     99.36000000    36.31000000    82.32000000
   C     99.07000000    37.55000000    83.16000000
   O     99.26000000    37.53000000    84.37000000
   C    100.86000000    36.23000000    82.04000000
   H     99.65000000    34.77000000    83.69000000
   H     98.84000000    36.39000000    81.37000000
   H    101.42000000    36.46000000    82.95000000
   H    101.15000000    35.27000000    81.61000000
   H    101.19000000    37.02000000    81.38000000
   N     98.71000000    38.69000000    82.57000000
   C     98.30000000    38.93000000    81.20000000
   C     96.94000000    39.54000000    80.90000000
   O     96.44000000    39.34000000    79.79000000
   C     99.51000000    39.58000000    80.53000000
   C     99.71000000    41.06000000    80.86000000
   C    101.00000000    41.62000000    80.28000000
   O    100.95000000    42.61000000    79.51000000
   O    102.10000000    41.25000000    80.75000000
   H     98.81000000    39.49000000    83.19000000
   H     98.18000000    38.03000000    80.59000000
   H     99.45000000    39.42000000    79.46000000
   H    100.43000000    39.08000000    80.84000000
   H     99.65000000    41.28000000    81.93000000
   H     98.92000000    41.53000000    80.28000000
   N     96.38000000    40.20000000    81.91000000
   C     95.06000000    40.79000000    81.95000000
   H     94.36300000    40.08800000    82.40800000
   H     95.08900000    41.70800000    82.53800000
   H     94.73200000    41.01800000    80.93600000
   H     97.00000000    40.56000000    82.63000000
  Ca     99.73200000    32.56000000    71.60000000
   O    101.06200000    34.97000000    72.35000000
   H    100.81200000    35.85000000    72.05000000
   H    101.74200000    35.13000000    73.00000000
   O     99.02000000    30.08000000    72.32000000
   H     99.18000000    29.18000000    72.02000000
   H     98.62000000    29.97000000    73.18000000
   O    100.18200000    32.59000000    74.26000000
   H     99.43200000    32.43000000    74.83000000
   H    100.93200000    32.29000000    74.76000000

Ca 1.00



