%chk=loop1.holoCaM-CaMKII.run14.water2.chk
%nprocshared=20
%mem=10GB
%nosave
#b3lyp/svp scf=(tight,noincore,xqc) Test 
#IOP(5/87=12) Density=Current Pop=(MK,readradii) iop(6/33=2) iop(6/42=6)

loop1.holoCaM-CaMKII.run14.water2 

   0  1 
   C     70.58000000    54.48000000    13.71000000
   C     70.62000000    54.07000000    12.24000000
   O     69.76000000    53.28000000    11.86000000
   H     69.69700000    55.09300000    13.89200000
   H     70.53700000    53.58800000    14.33500000
   H     71.47600000    55.05200000    13.95300000
   N     71.54000000    54.59000000    11.43000000
   C     71.84000000    54.38000000    10.03000000
   C     72.57000000    53.08000000     9.71000000
   O     73.78000000    52.95000000     9.88000000
   C     72.52000000    55.62000000     9.46000000
   C     72.76000000    55.43000000     7.97000000
   O     73.76000000    56.00000000     7.47000000
   O     72.05000000    54.60000000     7.35000000
   H     72.20000000    55.17000000    11.94000000
   H     70.93000000    54.29000000     9.43000000
   H     73.45000000    55.78000000    10.00000000
   H     71.84000000    56.45000000     9.60000000
   N     71.82000000    52.02000000     9.40000000
   C     72.33000000    50.67000000     9.29000000
   C     72.90000000    50.23000000     7.95000000
   O     73.16000000    49.04000000     7.75000000
   C     71.30000000    49.71000000     9.89000000
   C     70.89000000    49.93000000    11.34000000
   C     72.05000000    50.04000000    12.33000000
   C     71.64000000    49.37000000    13.64000000
   N     70.64000000    50.07000000    14.44000000
   H     70.84000000    52.18000000     9.19000000
   H     73.21000000    50.58000000     9.92000000
   H     71.67000000    48.69000000     9.78000000
   H     70.37000000    49.77000000     9.31000000
   H     70.21000000    49.10000000    11.54000000
   H     70.23000000    50.80000000    11.42000000
   H     72.27000000    51.09000000    12.56000000
   H     72.95000000    49.52000000    12.01000000
   H     72.55000000    49.16000000    14.21000000
   H     71.25000000    48.37000000    13.41000000
   H     70.96000000    50.94000000    14.84000000
   H     69.85000000    50.35000000    13.87000000
   H     70.25000000    49.45000000    15.14000000
   N     73.02000000    51.08000000     6.93000000
   C     73.58000000    50.89000000     5.61000000
   C     74.70000000    51.86000000     5.26000000
   O     75.68000000    51.53000000     4.60000000
   C     72.50000000    50.88000000     4.54000000
   C     71.53000000    52.05000000     4.61000000
   O     70.32000000    51.84000000     4.85000000
   O     72.03000000    53.19000000     4.57000000
   H     72.55000000    51.96000000     7.12000000
   H     74.05000000    49.90000000     5.55000000
   H     71.99000000    49.92000000     4.66000000
   H     72.97000000    50.70000000     3.57000000
   N     74.66000000    53.06000000     5.84000000
   C     75.69000000    54.08000000     5.89000000
   C     75.60000000    55.24000000     4.90000000
   O     76.57000000    55.95000000     4.69000000
   H     73.90000000    53.22000000     6.49000000
   H     76.63000000    53.53000000     5.74000000
   H     75.70000000    54.46000000     6.91000000
   N     74.41000000    55.41000000     4.32000000
   C     74.08000000    56.30000000     3.22000000
   C     73.92000000    57.74000000     3.69000000
   O     73.53000000    58.63000000     2.94000000
   C     72.82000000    55.82000000     2.51000000
   C     71.52000000    55.80000000     3.30000000
   O     71.40000000    56.38000000     4.40000000
   O     70.60000000    55.11000000     2.80000000
   H     73.74000000    54.76000000     4.70000000
   H     74.90000000    56.28000000     2.51000000
   H     72.98000000    54.80000000     2.16000000
   H     72.67000000    56.53000000     1.69000000
   N     74.24000000    58.09000000     4.94000000
   C     74.16000000    59.41000000     5.53000000
   C     72.78000000    59.97000000     5.85000000
   O     72.64000000    61.17000000     6.03000000
   H     74.56000000    57.30000000     5.48000000
   H     74.46000000    60.12000000     4.77000000
   H     74.83000000    59.51000000     6.39000000
   N     71.75000000    59.13000000     5.71000000
   C     70.39000000    59.45000000     6.10000000
   C     69.81000000    58.42000000     7.05000000
   O     70.07000000    57.23000000     6.88000000
   C     69.43000000    59.62000000     4.93000000
   C     69.66000000    60.89000000     4.11000000
   O     69.62000000    58.65000000     3.93000000
   H     71.92000000    58.17000000     5.47000000
   H     70.47000000    60.40000000     6.64000000
   H     68.40000000    59.58000000     5.29000000
   H     70.36000000    58.16000000     4.29000000
   H     69.63000000    61.73000000     4.80000000
   H     70.66000000    60.84000000     3.69000000
   H     68.89000000    61.09000000     3.36000000
   N     68.86000000    58.86000000     7.89000000
   C     68.04000000    57.93000000     8.64000000
   C     66.59000000    57.88000000     8.16000000
   O     65.94000000    58.91000000     8.04000000
   C     67.98000000    58.10000000    10.16000000
   C     69.20000000    58.74000000    10.83000000
   C     67.74000000    56.75000000    10.81000000
   C     68.92000000    59.24000000    12.24000000
   H     68.64000000    59.84000000     7.93000000
   H     68.46000000    56.94000000     8.48000000
   H     67.19000000    58.83000000    10.35000000
   H     69.70000000    59.47000000    10.20000000
   H     70.02000000    58.01000000    10.82000000
   H     67.66000000    56.84000000    11.89000000
   H     66.78000000    56.34000000    10.48000000
   H     68.58000000    56.10000000    10.55000000
   H     69.02000000    58.49000000    13.02000000
   H     69.64000000    60.05000000    12.40000000
   H     67.96000000    59.74000000    12.26000000
   N     66.10000000    56.66000000     7.96000000
   C     64.70000000    56.47000000     7.63000000
   C     63.83000000    56.06000000     8.80000000
   O     64.33000000    55.86000000     9.91000000
   C     64.53000000    55.40000000     6.55000000
   C     64.99000000    55.68000000     5.12000000
   O     65.07000000    54.15000000     6.95000000
   H     66.71000000    55.86000000     8.09000000
   H     64.31000000    57.40000000     7.22000000
   H     63.45000000    55.25000000     6.50000000
   H     66.01000000    54.30000000     6.82000000
   H     65.32000000    56.70000000     4.91000000
   H     65.80000000    55.01000000     4.84000000
   H     64.08000000    55.50000000     4.56000000
   N     62.52000000    56.18000000     8.55000000
   C     61.56000000    55.94000000     9.60000000
   C     61.60000000    54.48000000    10.05000000
   O     61.52000000    54.22000000    11.25000000
   C     60.12000000    56.17000000     9.14000000
   C     59.11000000    56.42000000    10.25000000
   O     60.18000000    57.28000000     8.27000000
   H     62.16000000    56.32000000     7.61000000
   H     61.75000000    56.58000000    10.46000000
   H     59.92000000    55.24000000     8.61000000
   H     60.82000000    57.06000000     7.60000000
   H     59.11000000    55.63000000    11.01000000
   H     59.42000000    57.35000000    10.73000000
   H     58.12000000    56.55000000     9.84000000
   N     61.92000000    53.55000000     9.15000000
   C     62.25000000    52.17000000     9.45000000
   C     63.42000000    52.07000000    10.42000000
   O     63.28000000    51.49000000    11.50000000
   C     62.65000000    51.33000000     8.24000000
   C     62.78000000    49.83000000     8.52000000
   C     61.67000000    49.06000000     9.23000000
   C     60.37000000    49.00000000     8.43000000
   N     59.37000000    48.26000000     9.22000000
   H     62.04000000    53.82000000     8.19000000
   H     61.35000000    51.69000000     9.86000000
   H     63.55000000    51.66000000     7.73000000
   H     61.90000000    51.42000000     7.46000000
   H     63.69000000    49.66000000     9.10000000
   H     63.02000000    49.37000000     7.56000000
   H     61.49000000    49.55000000    10.18000000
   H     62.09000000    48.06000000     9.26000000
   H     60.62000000    48.47000000     7.51000000
   H     59.98000000    50.00000000     8.20000000
   H     58.52000000    48.21000000     8.69000000
   H     59.70000000    47.38000000     9.59000000
   H     59.08000000    48.79000000    10.03000000
   N     64.60000000    52.55000000    10.03000000
   C     65.82000000    52.51000000    10.81000000
   C     65.64000000    53.11000000    12.20000000
   O     66.18000000    52.52000000    13.12000000
   C     66.94000000    53.25000000    10.08000000
   C     67.42000000    52.47000000     8.86000000
   C     68.27000000    53.34000000     7.95000000
   O     67.79000000    54.36000000     7.41000000
   O     69.49000000    53.13000000     7.76000000
   H     64.56000000    53.05000000     9.15000000
   H     66.11000000    51.48000000    10.97000000
   H     67.80000000    53.45000000    10.72000000
   H     66.50000000    54.19000000     9.78000000
   H     66.57000000    52.10000000     8.30000000
   H     67.98000000    51.57000000     9.15000000
   N     64.81000000    54.14000000    12.38000000
   C     64.55000000    54.65000000    13.71000000
   H     63.50800000    54.46700000    13.97100000
   H     65.19800000    54.14500000    14.42700000
   H     64.74700000    55.72200000    13.73400000
   H     64.34000000    54.54000000    11.58000000
  Ca     70.08000000    54.68000000     5.79000000
   O     68.28000000    56.37000000     4.57000000
   H     68.37000000    57.21000000     4.14000000
   H     67.85000000    55.81000000     3.92000000
   O     68.05000000    53.44000000     4.42000000
   H     68.20000000    52.50000000     4.51000000
   H     67.34000000    53.51000000     3.78000000

Ca 1.00



