%chk=loop1.apoCaM-CA-Ng.Init295.run6.water5.chk
%nprocshared=20
%mem=10GB
%nosave
#b3lyp/svp scf=(tight,noincore,xqc) Test 
#IOP(5/87=12) Density=Current Pop=(MK,readradii) iop(6/33=2) iop(6/42=6)

loop1.apoCaM-CA-Ng.Init295.run6.water5 

   0  1 
   C     36.38000000    47.34000000    40.88000000
   C     37.59000000    48.00000000    40.24000000
   O     38.42000000    47.30000000    39.67000000
   H     35.53300000    47.39600000    40.19700000
   H     36.60600000    46.29500000    41.09300000
   H     36.13300000    47.85600000    41.80800000
   N     37.68000000    49.33000000    40.31000000
   C     38.77000000    50.17000000    39.85000000
   C     39.00000000    50.24000000    38.34000000
   O     39.86000000    51.01000000    37.93000000
   C     39.97000000    50.07000000    40.79000000
   C     40.91000000    51.27000000    40.65000000
   O     40.55000000    52.36000000    41.13000000
   O     42.01000000    51.07000000    40.10000000
   H     36.88000000    49.79000000    40.72000000
   H     38.36000000    51.15000000    40.06000000
   H     40.57000000    49.19000000    40.60000000
   H     39.66000000    49.96000000    41.83000000
   N     38.20000000    49.52000000    37.54000000
   C     38.33000000    49.32000000    36.11000000
   C     38.21000000    50.59000000    35.28000000
   O     38.66000000    50.50000000    34.14000000
   C     37.26000000    48.34000000    35.66000000
   C     37.59000000    46.87000000    35.92000000
   C     36.36000000    46.01000000    35.64000000
   C     36.77000000    44.55000000    35.83000000
   N     35.65000000    43.64000000    35.59000000
   H     37.58000000    48.97000000    38.11000000
   H     39.34000000    48.92000000    36.01000000
   H     37.10000000    48.49000000    34.59000000
   H     36.29000000    48.56000000    36.10000000
   H     38.05000000    46.61000000    36.87000000
   H     38.34000000    46.65000000    35.16000000
   H     36.06000000    46.15000000    34.60000000
   H     35.56000000    46.23000000    36.34000000
   H     37.14000000    44.50000000    36.85000000
   H     37.52000000    44.27000000    35.09000000
   H     34.85000000    43.98000000    36.11000000
   H     35.36000000    43.59000000    34.62000000
   H     35.89000000    42.71000000    35.91000000
   N     37.85000000    51.78000000    35.77000000
   C     37.83000000    53.02000000    35.02000000
   C     38.31000000    54.24000000    35.78000000
   O     38.54000000    55.28000000    35.18000000
   C     36.42000000    53.29000000    34.50000000
   C     36.35000000    54.36000000    33.42000000
   O     35.26000000    54.89000000    33.12000000
   O     37.39000000    54.68000000    32.81000000
   H     37.67000000    51.79000000    36.76000000
   H     38.46000000    53.01000000    34.13000000
   H     35.67000000    53.55000000    35.25000000
   H     36.13000000    52.34000000    34.05000000
   N     38.63000000    54.09000000    37.07000000
   C     39.62000000    54.92000000    37.73000000
   C     39.35000000    56.35000000    38.16000000
   O     40.23000000    57.18000000    38.39000000
   H     38.28000000    53.30000000    37.59000000
   H     40.47000000    55.00000000    37.06000000
   H     39.98000000    54.38000000    38.60000000
   N     38.08000000    56.76000000    38.04000000
   C     37.62000000    58.11000000    38.30000000
   C     37.15000000    58.31000000    39.73000000
   O     36.05000000    57.87000000    40.04000000
   C     36.61000000    58.58000000    37.25000000
   C     37.01000000    58.29000000    35.81000000
   O     37.92000000    58.91000000    35.21000000
   O     36.44000000    57.34000000    35.25000000
   H     37.33000000    56.13000000    37.79000000
   H     38.50000000    58.74000000    38.22000000
   H     36.45000000    59.65000000    37.35000000
   H     35.67000000    58.09000000    37.48000000
   N     37.86000000    59.07000000    40.57000000
   C     37.57000000    59.40000000    41.94000000
   C     37.89000000    58.26000000    42.90000000
   O     38.06000000    58.51000000    44.09000000
   H     38.72000000    59.49000000    40.23000000
   H     36.49000000    59.54000000    41.94000000
   H     38.09000000    60.29000000    42.29000000
   N     37.96000000    57.02000000    42.43000000
   C     38.11000000    55.84000000    43.27000000
   C     36.91000000    55.70000000    44.19000000
   O     35.77000000    55.98000000    43.80000000
   C     38.39000000    54.59000000    42.44000000
   C     37.46000000    54.04000000    41.35000000
   O     39.61000000    54.80000000    41.77000000
   H     37.80000000    56.92000000    41.44000000
   H     39.04000000    55.96000000    43.83000000
   H     38.55000000    53.74000000    43.11000000
   H     39.90000000    53.90000000    41.60000000
   H     37.22000000    54.84000000    40.64000000
   H     37.93000000    53.28000000    40.73000000
   H     36.45000000    53.73000000    41.61000000
   N     37.11000000    55.27000000    45.43000000
   C     36.20000000    55.33000000    46.56000000
   C     36.62000000    56.11000000    47.79000000
   O     35.79000000    56.49000000    48.61000000
   C     35.65000000    54.00000000    47.06000000
   C     36.80000000    53.08000000    47.45000000
   C     34.88000000    53.33000000    45.93000000
   C     36.38000000    51.64000000    47.70000000
   H     38.04000000    54.90000000    45.62000000
   H     35.31000000    55.81000000    46.15000000
   H     34.97000000    54.11000000    47.91000000
   H     37.42000000    53.47000000    48.26000000
   H     37.52000000    52.99000000    46.63000000
   H     34.24000000    52.53000000    46.29000000
   H     34.22000000    54.07000000    45.47000000
   H     35.55000000    52.91000000    45.18000000
   H     35.89000000    51.23000000    46.83000000
   H     37.21000000    51.00000000    48.02000000
   H     35.69000000    51.74000000    48.54000000
   N     37.93000000    56.25000000    48.00000000
   C     38.54000000    56.94000000    49.13000000
   C     39.93000000    56.44000000    49.47000000
   O     40.58000000    55.75000000    48.69000000
   C     38.70000000    58.39000000    48.70000000
   C     39.66000000    58.59000000    47.53000000
   O     37.51000000    59.04000000    48.32000000
   H     38.57000000    55.65000000    47.50000000
   H     37.86000000    56.87000000    49.98000000
   H     39.19000000    58.96000000    49.49000000
   H     36.88000000    58.96000000    49.05000000
   H     40.72000000    58.39000000    47.66000000
   H     39.23000000    57.96000000    46.74000000
   H     39.67000000    59.65000000    47.29000000
   N     40.46000000    56.71000000    50.67000000
   C     41.86000000    56.58000000    51.05000000
   C     42.14000000    56.19000000    52.49000000
   O     42.89000000    55.24000000    52.73000000
   C     42.68000000    57.78000000    50.60000000
   C     44.19000000    57.58000000    50.70000000
   O     42.21000000    59.01000000    51.11000000
   H     39.87000000    57.10000000    51.39000000
   H     42.29000000    55.73000000    50.51000000
   H     42.48000000    57.88000000    49.54000000
   H     42.64000000    59.74000000    50.65000000
   H     44.37000000    57.50000000    51.77000000
   H     44.44000000    56.74000000    50.06000000
   H     44.74000000    58.45000000    50.34000000
   N     41.62000000    56.86000000    53.52000000
   C     41.87000000    56.51000000    54.91000000
   C     40.65000000    56.64000000    55.81000000
   O     40.11000000    57.71000000    56.06000000
   C     43.01000000    57.38000000    55.44000000
   C     43.52000000    56.93000000    56.81000000
   C     44.44000000    58.01000000    57.36000000
   C     44.80000000    57.67000000    58.80000000
   N     45.84000000    58.49000000    59.43000000
   H     41.15000000    57.72000000    53.29000000
   H     42.15000000    55.46000000    54.95000000
   H     42.76000000    58.44000000    55.42000000
   H     43.87000000    57.30000000    54.77000000
   H     44.15000000    56.05000000    56.70000000
   H     42.78000000    56.67000000    57.57000000
   H     44.03000000    59.01000000    57.19000000
   H     45.42000000    57.95000000    56.88000000
   H     45.19000000    56.65000000    58.87000000
   H     43.85000000    57.80000000    59.32000000
   H     45.53000000    59.41000000    59.13000000
   H     45.83000000    58.44000000    60.44000000
   H     46.77000000    58.30000000    59.09000000
   N     40.21000000    55.48000000    56.30000000
   C     39.13000000    55.34000000    57.26000000
   C     37.74000000    55.34000000    56.64000000
   O     36.91000000    56.17000000    57.01000000
   C     39.45000000    54.12000000    58.13000000
   C     40.84000000    54.02000000    58.73000000
   C     40.85000000    53.02000000    59.87000000
   O     40.76000000    51.79000000    59.64000000
   O     40.91000000    53.43000000    61.05000000
   H     40.74000000    54.66000000    56.03000000
   H     39.23000000    56.16000000    57.97000000
   H     39.30000000    53.17000000    57.62000000
   H     38.75000000    54.07000000    58.97000000
   H     40.99000000    55.06000000    59.02000000
   H     41.62000000    53.84000000    57.98000000
   N     37.35000000    54.56000000    55.63000000
   C     38.12000000    53.56000000    54.91000000
   H     39.09300000    53.43900000    55.38600000
   H     37.58700000    52.60900000    54.92700000
   H     38.25900000    53.88100000    53.87800000
   H     36.41000000    54.54000000    55.25000000
  Ca     38.15000000    57.09000000    33.24000000
   O     37.69000000    57.08000000    30.73000000
   H     37.24000000    57.73000000    30.19000000
   H     37.85000000    56.34000000    30.14000000
   O     38.61000000    59.39000000    32.03000000
   H     38.74000000    59.22000000    31.10000000
   H     39.32000000    59.98000000    32.27000000
   O     40.11000000    55.74000000    31.53000000
   H     39.82000000    54.84000000    31.34000000
   H     40.46000000    56.06000000    30.70000000
   O     35.80000000    58.49000000    32.85000000
   H     35.20000000    58.40000000    32.10000000
   H     35.26000000    58.27000000    33.61000000
   O     40.52000000    57.64000000    34.45000000
   H     40.72000000    58.11000000    35.26000000
   H     41.21000000    56.98000000    34.37000000

Ca 1.00



