%chk=loop1.holoCaM-CaMKII.run66.water2.chk
%nprocshared=20
%mem=10GB
%nosave
#b3lyp/svp scf=(tight,noincore,xqc) Test 
#IOP(5/87=12) Density=Current Pop=(MK,readradii) iop(6/33=2) iop(6/42=6)

loop1.holoCaM-CaMKII.run66.water2 

   0  1 
   C     29.07000000    62.54000000   100.17900000
   C     29.37000000    64.00000000   100.48900000
   O     29.04000000    64.85000000    99.67900000
   H     28.15200000    62.47400000    99.59400000
   H     29.89500000    62.11200000    99.60900000
   H     28.94700000    61.98800000   101.11100000
   N     29.93000000    64.35000000   101.64900000
   C     30.33000000    65.71000000   101.95900000
   C     31.34000000    66.18000000   100.92900000
   O     32.52000000    65.85000000   101.03900000
   C     30.86000000    65.79000000   103.38900000
   C     31.01000000    67.26000000   103.74900000
   O     31.95000000    67.51000000   104.53900000
   O     30.31000000    68.15000000   103.22900000
   H     30.06000000    63.62000000   102.33900000
   H     29.45000000    66.35000000   101.81900000
   H     31.80000000    65.25000000   103.50900000
   H     30.13000000    65.32000000   104.04900000
   N     30.93000000    67.04000000    99.99900000
   C     31.73000000    67.49000000    98.87900000
   C     32.28000000    68.91000000    98.93900000
   O     33.10000000    69.34000000    98.12900000
   C     31.01000000    67.22000000    97.55900000
   C     31.83000000    66.32000000    96.63900000
   C     32.08000000    64.84000000    96.93900000
   C     32.35000000    64.04000000    95.66900000
   N     32.04000000    62.63000000    95.93900000
   H     29.92000000    67.14000000    99.96900000
   H     32.62000000    66.87000000    98.88900000
   H     30.78000000    68.12000000    96.98900000
   H     30.03000000    66.77000000    97.73900000
   H     32.80000000    66.77000000    96.42900000
   H     31.48000000    66.41000000    95.60900000
   H     31.14000000    64.45000000    97.31900000
   H     32.92000000    64.75000000    97.63900000
   H     33.39000000    64.20000000    95.36900000
   H     31.68000000    64.41000000    94.88900000
   H     31.15000000    62.55000000    96.41900000
   H     31.92000000    62.00000000    95.15900000
   H     32.76000000    62.16000000    96.46900000
   N     31.83000000    69.69000000    99.92900000
   C     32.30000000    71.04000000   100.10900000
   C     32.94000000    71.31000000   101.46900000
   O     33.49000000    72.40000000   101.62900000
   C     31.16000000    72.01000000    99.81900000
   C     29.81000000    71.70000000   100.45900000
   O     29.65000000    70.82000000   101.32900000
   O     28.84000000    72.40000000   100.08900000
   H     31.04000000    69.42000000   100.48900000
   H     33.03000000    71.32000000    99.34900000
   H     30.93000000    71.96000000    98.75900000
   H     31.49000000    73.02000000   100.05900000
   N     33.07000000    70.27000000   102.29900000
   C     33.91000000    70.23000000   103.46900000
   C     33.39000000    71.05000000   104.64900000
   O     34.10000000    71.91000000   105.14900000
   H     32.51000000    69.48000000   102.00900000
   H     34.88000000    70.61000000   103.14900000
   H     34.14000000    69.24000000   103.86900000
   N     32.16000000    70.72000000   105.05900000
   C     31.51000000    71.29000000   106.21900000
   C     31.16000000    70.29000000   107.30900000
   O     30.68000000    70.62000000   108.39900000
   C     30.30000000    72.10000000   105.77900000
   C     29.34000000    71.28000000   104.92900000
   O     28.67000000    71.76000000   103.99900000
   O     29.24000000    70.07000000   105.22900000
   H     31.67000000    69.98000000   104.56900000
   H     32.21000000    71.92000000   106.76900000
   H     30.62000000    72.92000000   105.12900000
   H     29.79000000    72.50000000   106.65900000
   N     31.44000000    69.02000000   107.00900000
   C     31.14000000    67.92000000   107.89900000
   C     29.67000000    67.53000000   108.00900000
   O     29.30000000    67.02000000   109.05900000
   H     31.87000000    68.81000000   106.11900000
   H     31.41000000    68.12000000   108.93900000
   H     31.71000000    67.04000000   107.61900000
   N     28.83000000    67.71000000   106.98900000
   C     27.42000000    67.40000000   106.84900000
   C     26.96000000    67.08000000   105.43900000
   O     27.50000000    67.56000000   104.44900000
   C     26.53000000    68.50000000   107.39900000
   C     26.59000000    68.65000000   108.91900000
   O     26.84000000    69.76000000   106.84900000
   H     29.22000000    68.12000000   106.14900000
   H     27.21000000    66.49000000   107.41900000
   H     25.48000000    68.29000000   107.20900000
   H     27.79000000    69.67000000   106.69900000
   H     26.45000000    67.76000000   109.52900000
   H     27.58000000    68.98000000   109.23900000
   H     25.92000000    69.46000000   109.21900000
   N     25.94000000    66.22000000   105.34900000
   C     25.41000000    65.71000000   104.09900000
   C     24.00000000    66.25000000   103.89900000
   O     23.13000000    66.04000000   104.74900000
   C     25.47000000    64.19000000   104.20900000
   C     26.85000000    63.59000000   104.42900000
   C     24.73000000    63.62000000   103.00900000
   C     26.85000000    62.12000000   104.82900000
   H     25.52000000    65.87000000   106.19900000
   H     25.99000000    65.94000000   103.19900000
   H     24.95000000    63.93000000   105.12900000
   H     27.42000000    64.12000000   105.18900000
   H     27.40000000    63.64000000   103.48900000
   H     24.71000000    62.53000000   103.01900000
   H     23.70000000    63.98000000   102.99900000
   H     25.18000000    64.07000000   102.12900000
   H     26.13000000    62.00000000   105.64900000
   H     26.52000000    61.49000000   103.99900000
   H     27.85000000    61.74000000   105.05900000
   N     23.74000000    67.01000000   102.82900000
   C     22.42000000    67.40000000   102.36900000
   C     21.66000000    66.37000000   101.53900000
   O     22.31000000    65.50000000   100.95900000
   C     22.45000000    68.66000000   101.51900000
   C     22.82000000    69.97000000   102.20900000
   O     23.36000000    68.44000000   100.45900000
   H     24.56000000    67.09000000   102.24900000
   H     21.73000000    67.62000000   103.17900000
   H     21.48000000    69.00000000   101.14900000
   H     24.24000000    68.59000000   100.80900000
   H     22.05000000    70.19000000   102.95900000
   H     23.80000000    69.90000000   102.67900000
   H     22.85000000    70.75000000   101.44900000
   N     20.36000000    66.55000000   101.26900000
   C     19.71000000    65.86000000   100.17900000
   C     20.47000000    65.94000000    98.85900000
   O     20.34000000    65.00000000    98.07900000
   C     18.25000000    66.28000000   100.04900000
   C     17.35000000    65.96000000   101.23900000
   O     18.20000000    67.67000000    99.79900000
   H     19.92000000    67.37000000   101.64900000
   H     19.74000000    64.81000000   100.46900000
   H     17.71000000    65.86000000    99.19900000
   H     18.60000000    67.79000000    98.93900000
   H     17.45000000    66.68000000   102.03900000
   H     16.32000000    66.09000000   100.90900000
   H     17.52000000    64.97000000   101.65900000
   N     21.19000000    67.04000000    98.62900000
   C     21.93000000    67.32000000    97.41900000
   C     23.06000000    66.33000000    97.22900000
   O     23.06000000    65.66000000    96.19900000
   C     22.41000000    68.77000000    97.38900000
   C     23.12000000    69.05000000    96.06900000
   C     23.48000000    70.53000000    96.02900000
   C     22.26000000    71.43000000    96.08900000
   N     22.61000000    72.85000000    95.94900000
   H     21.38000000    67.64000000    99.41900000
   H     21.31000000    67.10000000    96.54900000
   H     23.06000000    68.96000000    98.23900000
   H     21.55000000    69.43000000    97.54900000
   H     22.49000000    68.67000000    95.25900000
   H     24.04000000    68.47000000    96.03900000
   H     24.11000000    70.76000000    95.16900000
   H     24.20000000    70.67000000    96.83900000
   H     21.74000000    71.29000000    97.03900000
   H     21.56000000    71.12000000    95.31900000
   H     23.21000000    73.08000000    95.15900000
   H     21.84000000    73.48000000    95.80900000
   H     23.15000000    73.11000000    96.75900000
   N     23.88000000    66.15000000    98.27900000
   C     25.02000000    65.26000000    98.34900000
   C     24.62000000    63.79000000    98.34900000
   O     25.36000000    63.01000000    97.74900000
   C     25.79000000    65.76000000    99.56900000
   C     26.43000000    67.12000000    99.29900000
   C     26.95000000    67.67000000   100.61900000
   O     28.19000000    67.85000000   100.72900000
   O     26.17000000    68.08000000   101.49900000
   H     23.63000000    66.73000000    99.06900000
   H     25.51000000    65.51000000    97.40900000
   H     26.44000000    64.94000000    99.85900000
   H     25.16000000    65.77000000   100.45900000
   H     25.73000000    67.83000000    98.86900000
   H     27.17000000    67.02000000    98.50900000
   N     23.47000000    63.41000000    98.89900000
   C     22.78000000    62.18000000    98.55900000
   H     21.83800000    62.41700000    98.06400000
   H     23.40200000    61.58700000    97.88900000
   H     22.58000000    61.61200000    99.46800000
   H     23.05000000    64.06000000    99.54900000
  Ca     28.09000000    69.47000000   102.78900000
   O     25.81000000    70.47000000   104.13900000
   H     26.11000000    70.55000000   105.04900000
   H     25.16000000    71.17000000   104.03900000
   O     26.61000000    71.03000000   101.21900000
   H     27.27000000    71.65000000   100.89900000
   H     25.79000000    71.35000000   100.82900000

Ca 1.00



