%chk=loop2.apoCaM-CA-Ng.Init293.run45.water6.chk
%nprocshared=20
%mem=10GB
%nosave
#b3lyp/svp scf=(tight,noincore,xqc) Test 
#IOP(5/87=12) Density=Current Pop=(MK,readradii) iop(6/33=2) iop(6/42=6)

loop2.apoCaM-CA-Ng.Init293.run45.water6 

   -2  1 
   C     61.45000000    76.47000000    20.43000000
   C     61.44000000    75.82000000    21.81000000
   O     60.67000000    76.27000000    22.65000000
   H     62.08600000    77.35500000    20.45100000
   H     61.83700000    75.76200000    19.69700000
   H     60.43500000    76.75800000    20.15600000
   N     62.30000000    74.81000000    21.99000000
   C     62.29000000    73.86000000    23.08000000
   C     63.01000000    74.35000000    24.32000000
   O     62.38000000    74.44000000    25.38000000
   C     62.83000000    72.54000000    22.54000000
   C     63.01000000    71.43000000    23.57000000
   O     62.00000000    70.90000000    24.09000000
   O     64.18000000    71.09000000    23.87000000
   H     62.78000000    74.62000000    21.12000000
   H     61.24000000    73.72000000    23.34000000
   H     63.72000000    72.59000000    21.92000000
   H     62.11000000    72.23000000    21.79000000
   N     64.28000000    74.75000000    24.19000000
   C     65.00000000    75.42000000    25.25000000
   C     64.28000000    76.65000000    25.78000000
   O     64.58000000    76.96000000    26.93000000
   C     65.44000000    74.33000000    26.23000000
   H     64.63000000    74.64000000    23.25000000
   H     65.90000000    75.78000000    24.75000000
   H     64.62000000    73.88000000    26.78000000
   H     66.01000000    73.58000000    25.69000000
   H     66.08000000    74.72000000    27.03000000
   N     63.49000000    77.40000000    25.01000000
   C     62.65000000    78.45000000    25.54000000
   C     61.81000000    78.17000000    26.79000000
   O     61.41000000    79.17000000    27.39000000
   C     63.29000000    79.84000000    25.56000000
   C     64.02000000    80.05000000    24.24000000
   O     65.22000000    80.38000000    24.27000000
   O     63.29000000    80.07000000    23.22000000
   H     63.25000000    77.10000000    24.07000000
   H     61.96000000    78.59000000    24.71000000
   H     64.03000000    79.98000000    26.35000000
   H     62.50000000    80.59000000    25.57000000
   N     61.21000000    76.99000000    26.94000000
   C     60.34000000    76.71000000    28.06000000
   C     59.02000000    77.47000000    28.02000000
   O     58.47000000    77.70000000    26.95000000
   H     61.23000000    76.34000000    26.17000000
   H     60.91000000    77.15000000    28.87000000
   H     60.12000000    75.66000000    28.23000000
   N     58.54000000    77.92000000    29.18000000
   C     57.27000000    78.58000000    29.43000000
   C     56.00000000    78.18000000    28.69000000
   O     55.08000000    78.98000000    28.52000000
   C     57.45000000    80.09000000    29.43000000
   C     58.55000000    80.67000000    30.30000000
   N     58.77000000    81.99000000    30.36000000
   O     59.33000000    79.92000000    30.89000000
   H     59.16000000    77.84000000    29.98000000
   H     57.11000000    78.39000000    30.50000000
   H     56.54000000    80.61000000    29.73000000
   H     57.65000000    80.43000000    28.41000000
   H     58.21000000    82.62000000    29.81000000
   H     59.33000000    82.39000000    31.10000000
   N     55.89000000    76.90000000    28.36000000
   C     54.74000000    76.40000000    27.62000000
   C     54.84000000    76.41000000    26.10000000
   O     53.84000000    76.00000000    25.53000000
   H     56.61000000    76.29000000    28.72000000
   H     53.87000000    76.90000000    28.05000000
   H     54.57000000    75.34000000    27.86000000
   N     56.03000000    76.69000000    25.57000000
   C     56.18000000    76.44000000    24.15000000
   C     55.93000000    77.79000000    23.49000000
   O     56.35000000    78.80000000    24.05000000
   C     57.56000000    75.95000000    23.71000000
   C     57.91000000    74.64000000    24.40000000
   O     57.59000000    75.72000000    22.32000000
   H     56.78000000    76.99000000    26.17000000
   H     55.47000000    75.75000000    23.70000000
   H     58.27000000    76.72000000    23.99000000
   H     58.53000000    75.79000000    22.13000000
   H     57.97000000    74.74000000    25.48000000
   H     57.15000000    73.92000000    24.11000000
   H     58.87000000    74.39000000    23.93000000
   N     55.41000000    77.83000000    22.26000000
   C     55.54000000    79.00000000    21.41000000
   C     56.87000000    79.73000000    21.31000000
   O     57.94000000    79.19000000    21.56000000
   C     55.11000000    78.60000000    20.00000000
   C     55.93000000    77.44000000    19.44000000
   C     53.62000000    78.26000000    19.98000000
   C     55.52000000    76.97000000    18.05000000
   H     55.12000000    76.98000000    21.80000000
   H     54.80000000    79.76000000    21.64000000
   H     55.19000000    79.40000000    19.26000000
   H     55.90000000    76.61000000    20.14000000
   H     56.97000000    77.76000000    19.40000000
   H     53.05000000    78.96000000    20.58000000
   H     53.30000000    78.32000000    18.94000000
   H     53.49000000    77.33000000    20.53000000
   H     54.56000000    76.45000000    18.08000000
   H     55.39000000    77.86000000    17.43000000
   H     56.22000000    76.29000000    17.58000000
   N     56.81000000    80.98000000    20.83000000
   C     57.70000000    82.01000000    21.30000000
   C     57.13000000    82.84000000    22.45000000
   O     57.12000000    84.07000000    22.39000000
   C     58.21000000    82.83000000    20.12000000
   C     59.39000000    83.69000000    20.56000000
   O     59.56000000    84.76000000    19.94000000
   O     60.16000000    83.27000000    21.45000000
   H     55.89000000    81.21000000    20.47000000
   H     58.54000000    81.55000000    21.80000000
   H     57.38000000    83.46000000    19.79000000
   H     58.38000000    82.28000000    19.20000000
   N     56.69000000    82.18000000    23.53000000
   C     56.36000000    82.81000000    24.79000000
   C     55.02000000    83.51000000    25.00000000
   O     54.97000000    84.67000000    25.38000000
   C     56.76000000    81.93000000    25.98000000
   C     56.51000000    82.62000000    27.30000000
   C     55.31000000    82.40000000    27.99000000
   C     57.47000000    83.50000000    27.80000000
   C     55.05000000    83.11000000    29.17000000
   C     57.15000000    84.35000000    28.87000000
   C     55.95000000    84.12000000    29.54000000
   H     56.65000000    81.18000000    23.42000000
   H     57.14000000    83.54000000    25.01000000
   H     57.83000000    81.78000000    25.91000000
   H     56.22000000    80.98000000    25.95000000
   H     54.69000000    81.55000000    27.77000000
   H     58.26000000    83.71000000    27.09000000
   H     54.27000000    82.72000000    29.81000000
   H     57.77000000    85.16000000    29.22000000
   H     55.71000000    84.84000000    30.31000000
   N     53.87000000    82.91000000    24.70000000
   C     53.62000000    81.55000000    24.26000000
   C     53.22000000    81.70000000    22.80000000
   O     52.36000000    80.95000000    22.35000000
   C     52.48000000    80.97000000    25.09000000
   C     51.61000000    82.22000000    25.25000000
   C     52.64000000    83.33000000    25.36000000
   H     54.50000000    80.93000000    24.40000000
   H     51.91000000    80.11000000    24.75000000
   H     52.88000000    80.74000000    26.07000000
   H     51.16000000    82.40000000    24.28000000
   H     50.85000000    82.29000000    26.04000000
   H     52.28000000    84.24000000    24.86000000
   H     52.75000000    83.49000000    26.43000000
   N     53.62000000    82.77000000    22.10000000
   C     53.10000000    83.31000000    20.86000000
   C     53.42000000    82.37000000    19.71000000
   O     54.57000000    81.98000000    19.52000000
   C     53.80000000    84.64000000    20.61000000
   C     52.95000000    85.69000000    19.92000000
   C     53.65000000    87.04000000    19.84000000
   O     53.50000000    87.79000000    20.82000000
   O     54.48000000    87.31000000    18.94000000
   H     54.43000000    83.24000000    22.48000000
   H     52.03000000    83.45000000    21.01000000
   H     54.67000000    84.49000000    19.97000000
   H     54.14000000    85.09000000    21.55000000
   H     51.97000000    85.83000000    20.38000000
   H     52.61000000    85.46000000    18.91000000
   N     52.39000000    82.11000000    18.90000000
   C     52.42000000    81.47000000    17.59000000
   H     53.27000000    81.84800000    17.02100000
   H     52.51700000    80.39100000    17.71400000
   H     51.49700000    81.69300000    17.05500000
   H     51.44000000    82.20000000    19.22000000
  Ca     62.01000000    81.70000000    21.66000000
   O     63.77000000    80.66000000    19.87000000
   H     63.80000000    81.30000000    19.16000000
   H     63.87000000    79.81000000    19.43000000
   O     60.56000000    79.50000000    21.79000000
   H     60.70000000    78.82000000    22.46000000
   H     59.62000000    79.45000000    21.61000000
   O     63.14000000    83.36000000    23.68000000
   H     62.67000000    83.23000000    24.50000000
   H     63.40000000    84.28000000    23.69000000
   O     63.05000000    84.25000000    20.54000000
   H     62.69000000    84.59000000    19.71000000
   H     63.54000000    84.99000000    20.90000000
   O     60.57000000    81.62000000    24.03000000
   H     60.34000000    82.36000000    24.60000000
   H     59.93000000    80.95000000    24.26000000
   O     60.96000000    81.59000000    18.99000000
   H     60.70000000    82.41000000    18.57000000
   H     60.94000000    80.94000000    18.29000000

Ca 1.00



