%chk=loop1.holoCaM.run89.water1.chk
%nprocshared=20
%mem=10GB
%nosave
#b3lyp/svp scf=(tight,noincore,xqc) Test 
#IOP(5/87=12) Density=Current Pop=(MK,readradii) iop(6/33=2) iop(6/42=6)

loop1.holoCaM.run89.water1 

   0  1 
   C     59.82000000    86.28000000    48.83000000
   C     58.73000000    87.02000000    49.58000000
   O     58.52000000    88.18000000    49.22000000
   H     60.72200000    86.24700000    49.44000000
   H     59.48900000    85.26300000    48.61700000
   H     60.03300000    86.79700000    47.89400000
   N     58.20000000    86.47000000    50.67000000
   C     57.44000000    87.15000000    51.70000000
   C     58.45000000    87.98000000    52.47000000
   O     59.21000000    87.41000000    53.25000000
   C     56.67000000    86.23000000    52.64000000
   C     55.62000000    86.91000000    53.50000000
   O     54.85000000    86.08000000    54.03000000
   O     55.47000000    88.15000000    53.53000000
   H     58.39000000    85.49000000    50.85000000
   H     56.68000000    87.79000000    51.24000000
   H     57.34000000    85.75000000    53.35000000
   H     56.23000000    85.38000000    52.11000000
   N     58.36000000    89.31000000    52.38000000
   C     59.48000000    90.07000000    52.91000000
   C     59.02000000    90.50000000    54.29000000
   O     59.80000000    90.47000000    55.25000000
   C     59.88000000    91.27000000    52.05000000
   C     61.14000000    91.21000000    51.20000000
   C     61.17000000    90.13000000    50.12000000
   C     62.51000000    90.27000000    49.42000000
   N     62.67000000    89.27000000    48.35000000
   H     57.54000000    89.72000000    51.97000000
   H     60.40000000    89.50000000    53.03000000
   H     60.02000000    92.15000000    52.68000000
   H     59.08000000    91.54000000    51.35000000
   H     62.01000000    91.12000000    51.86000000
   H     61.38000000    92.09000000    50.60000000
   H     60.42000000    90.22000000    49.34000000
   H     61.03000000    89.21000000    50.69000000
   H     63.32000000    90.21000000    50.15000000
   H     62.61000000    91.23000000    48.92000000
   H     62.77000000    88.33000000    48.71000000
   H     61.90000000    89.32000000    47.69000000
   H     63.50000000    89.55000000    47.85000000
   N     57.80000000    91.01000000    54.46000000
   C     57.35000000    91.65000000    55.68000000
   C     56.69000000    90.67000000    56.65000000
   O     56.26000000    91.04000000    57.74000000
   C     56.40000000    92.78000000    55.29000000
   C     55.24000000    92.25000000    54.46000000
   O     54.39000000    91.50000000    55.00000000
   O     55.29000000    92.29000000    53.22000000
   H     57.30000000    91.19000000    53.60000000
   H     58.22000000    92.11000000    56.15000000
   H     56.91000000    93.56000000    54.73000000
   H     56.01000000    93.25000000    56.19000000
   N     56.47000000    89.45000000    56.18000000
   C     55.98000000    88.35000000    56.99000000
   C     54.54000000    88.52000000    57.44000000
   O     54.21000000    89.12000000    58.46000000
   H     56.76000000    89.18000000    55.25000000
   H     56.60000000    88.25000000    57.89000000
   H     56.10000000    87.41000000    56.45000000
   N     53.57000000    88.04000000    56.65000000
   C     52.17000000    87.89000000    56.98000000
   C     51.48000000    86.74000000    56.26000000
   O     50.25000000    86.75000000    56.21000000
   C     51.45000000    89.21000000    56.69000000
   C     51.46000000    89.72000000    55.26000000
   O     52.08000000    89.12000000    54.36000000
   O     50.94000000    90.80000000    54.91000000
   H     53.96000000    87.82000000    55.75000000
   H     52.10000000    87.73000000    58.05000000
   H     51.82000000    89.96000000    57.38000000
   H     50.45000000    89.11000000    57.10000000
   N     52.25000000    85.82000000    55.68000000
   C     51.83000000    84.63000000    54.96000000
   C     51.26000000    84.93000000    53.58000000
   O     50.97000000    83.94000000    52.90000000
   H     53.21000000    86.11000000    55.62000000
   H     51.01000000    84.16000000    55.52000000
   H     52.67000000    83.98000000    54.75000000
   N     51.25000000    86.17000000    53.10000000
   C     50.87000000    86.62000000    51.77000000
   C     52.00000000    87.28000000    51.00000000
   O     52.52000000    88.26000000    51.53000000
   C     49.58000000    87.43000000    51.84000000
   C     48.30000000    86.61000000    51.75000000
   O     49.40000000    88.15000000    53.04000000
   H     51.76000000    86.82000000    53.67000000
   H     50.64000000    85.76000000    51.14000000
   H     49.53000000    88.09000000    50.97000000
   H     50.04000000    87.88000000    53.69000000
   H     48.31000000    85.85000000    52.53000000
   H     47.36000000    87.15000000    51.68000000
   H     48.30000000    86.16000000    50.75000000
   N     52.31000000    86.84000000    49.78000000
   C     53.03000000    87.64000000    48.81000000
   C     52.18000000    88.47000000    47.86000000
   O     51.21000000    88.04000000    47.25000000
   C     54.13000000    86.91000000    48.05000000
   C     53.73000000    85.75000000    47.13000000
   C     55.07000000    86.35000000    49.12000000
   C     54.93000000    85.08000000    46.48000000
   H     51.80000000    86.04000000    49.42000000
   H     53.62000000    88.35000000    49.39000000
   H     54.71000000    87.61000000    47.45000000
   H     53.06000000    86.13000000    46.36000000
   H     53.24000000    85.04000000    47.79000000
   H     55.53000000    87.16000000    49.69000000
   H     54.48000000    85.67000000    49.73000000
   H     55.87000000    85.79000000    48.65000000
   H     55.55000000    84.43000000    47.10000000
   H     54.54000000    84.41000000    45.71000000
   H     55.48000000    85.84000000    45.93000000
   N     52.57000000    89.75000000    47.78000000
   C     51.83000000    90.84000000    47.18000000
   C     52.46000000    91.19000000    45.84000000
   O     53.59000000    90.83000000    45.54000000
   C     51.61000000    92.03000000    48.11000000
   C     50.64000000    91.85000000    49.27000000
   O     52.77000000    92.63000000    48.64000000
   H     53.37000000    89.99000000    48.35000000
   H     50.87000000    90.46000000    46.84000000
   H     51.16000000    92.70000000    47.38000000
   H     53.18000000    91.97000000    49.20000000
   H     50.86000000    90.98000000    49.90000000
   H     50.71000000    92.76000000    49.86000000
   H     49.65000000    91.69000000    48.85000000
   N     51.74000000    91.88000000    44.94000000
   C     52.33000000    92.53000000    43.79000000
   C     53.53000000    93.43000000    44.09000000
   O     54.32000000    93.51000000    43.15000000
   C     51.32000000    93.50000000    43.18000000
   C     50.17000000    92.83000000    42.43000000
   O     50.88000000    94.46000000    44.11000000
   H     50.88000000    92.30000000    45.26000000
   H     52.63000000    91.82000000    43.02000000
   H     51.81000000    94.04000000    42.37000000
   H     50.25000000    94.99000000    43.62000000
   H     49.56000000    93.54000000    41.87000000
   H     50.55000000    92.03000000    41.81000000
   H     49.52000000    92.47000000    43.23000000
   N     53.69000000    93.92000000    45.32000000
   C     54.77000000    94.78000000    45.77000000
   C     56.08000000    94.05000000    46.02000000
   O     57.15000000    94.54000000    45.65000000
   C     54.33000000    95.51000000    47.03000000
   C     55.02000000    96.87000000    47.09000000
   C     54.55000000    97.58000000    48.35000000
   C     54.85000000    99.06000000    48.09000000
   N     56.26000000    99.41000000    47.89000000
   H     53.04000000    93.48000000    45.95000000
   H     54.97000000    95.52000000    44.99000000
   H     54.56000000    94.93000000    47.93000000
   H     53.26000000    95.66000000    46.99000000
   H     54.72000000    97.46000000    46.22000000
   H     56.10000000    96.73000000    47.13000000
   H     54.96000000    97.19000000    49.29000000
   H     53.47000000    97.46000000    48.35000000
   H     54.34000000    99.70000000    48.81000000
   H     54.36000000    99.33000000    47.16000000
   H     56.59000000    99.05000000    47.01000000
   H     56.32000000   100.42000000    47.85000000
   H     56.89000000    99.16000000    48.64000000
   N     55.94000000    92.81000000    46.49000000
   C     56.99000000    91.86000000    46.77000000
   C     57.47000000    91.06000000    45.56000000
   O     58.63000000    90.70000000    45.40000000
   C     56.51000000    90.91000000    47.88000000
   C     56.36000000    91.71000000    49.17000000
   C     55.59000000    90.86000000    50.16000000
   O     54.35000000    90.82000000    50.04000000
   O     56.00000000    90.23000000    51.16000000
   H     55.03000000    92.36000000    46.53000000
   H     57.87000000    92.38000000    47.15000000
   H     57.26000000    90.15000000    48.09000000
   H     55.61000000    90.47000000    47.46000000
   H     55.90000000    92.68000000    49.00000000
   H     57.32000000    91.92000000    49.64000000
   N     56.54000000    90.84000000    44.63000000
   C     56.74000000    90.20000000    43.34000000
   H     57.78500000    89.90800000    43.23800000
   H     56.10800000    89.31500000    43.27100000
   H     56.47900000    90.89700000    42.54400000
   H     55.63000000    91.28000000    44.68000000
  Ca     53.89000000    90.14000000    52.68000000
   O     51.87000000    91.63000000    52.59000000
   H     51.63000000    92.56000000    52.53000000
   H     51.49000000    91.34000000    53.42000000

Ca 1.00



