%chk=loop2.holoCaM.run20.water2.chk
%nprocshared=20
%mem=10GB
%nosave
#b3lyp/svp scf=(tight,noincore,xqc) Test 
#IOP(5/87=12) Density=Current Pop=(MK,readradii) iop(6/33=2) iop(6/42=6)

loop2.holoCaM.run20.water2 

   -2  1 
   C     62.09000000    44.89000000     3.70000000
   C     60.70000000    44.45000000     3.28000000
   O     59.83000000    44.19000000     4.12000000
   H     62.75600000    44.85900000     2.83800000
   H     62.04800000    45.90700000     4.08900000
   H     62.46600000    44.22000000     4.47300000
   N     60.44000000    44.32000000     1.98000000
   C     59.21000000    43.78000000     1.43000000
   C     58.89000000    42.35000000     1.83000000
   O     59.65000000    41.46000000     1.43000000
   C     59.32000000    43.97000000    -0.08000000
   C     58.09000000    43.52000000    -0.86000000
   O     56.99000000    43.27000000    -0.33000000
   O     58.29000000    43.26000000    -2.06000000
   H     61.08000000    44.76000000     1.33000000
   H     58.46000000    44.50000000     1.75000000
   H     60.08000000    43.35000000    -0.54000000
   H     59.43000000    45.03000000    -0.34000000
   N     57.85000000    42.11000000     2.63000000
   C     57.60000000    40.90000000     3.39000000
   C     56.74000000    39.89000000     2.65000000
   O     56.89000000    38.72000000     2.99000000
   C     56.99000000    41.26000000     4.74000000
   H     57.44000000    42.98000000     2.94000000
   H     58.59000000    40.47000000     3.56000000
   H     56.14000000    41.92000000     4.59000000
   H     56.74000000    40.33000000     5.24000000
   H     57.75000000    41.79000000     5.31000000
   N     55.86000000    40.29000000     1.73000000
   C     55.15000000    39.40000000     0.84000000
   C     55.81000000    39.25000000    -0.52000000
   O     55.36000000    38.35000000    -1.22000000
   C     53.70000000    39.88000000     0.78000000
   C     53.35000000    41.36000000     0.71000000
   O     52.15000000    41.66000000     0.51000000
   O     54.24000000    42.23000000     0.77000000
   H     55.64000000    41.27000000     1.63000000
   H     55.06000000    38.41000000     1.29000000
   H     53.26000000    39.50000000     1.71000000
   H     53.18000000    39.38000000    -0.03000000
   N     56.79000000    40.09000000    -0.88000000
   C     57.55000000    40.01000000    -2.11000000
   C     56.89000000    40.47000000    -3.41000000
   O     56.95000000    39.75000000    -4.40000000
   H     56.90000000    40.85000000    -0.23000000
   H     57.78000000    38.96000000    -2.28000000
   H     58.50000000    40.54000000    -1.98000000
   N     56.18000000    41.59000000    -3.32000000
   C     55.38000000    42.16000000    -4.39000000
   C     55.94000000    43.33000000    -5.19000000
   O     55.47000000    43.59000000    -6.30000000
   C     54.02000000    42.57000000    -3.83000000
   C     54.07000000    43.93000000    -3.14000000
   N     53.25000000    44.89000000    -3.56000000
   O     54.91000000    44.19000000    -2.29000000
   H     56.46000000    42.19000000    -2.56000000
   H     55.17000000    41.40000000    -5.15000000
   H     53.64000000    41.80000000    -3.16000000
   H     53.33000000    42.66000000    -4.66000000
   H     52.56000000    44.59000000    -4.24000000
   H     53.28000000    45.87000000    -3.30000000
   N     56.94000000    43.98000000    -4.60000000
   C     57.64000000    45.09000000    -5.20000000
   C     57.36000000    46.52000000    -4.75000000
   O     57.80000000    47.49000000    -5.36000000
   H     57.27000000    43.66000000    -3.70000000
   H     57.66000000    45.02000000    -6.29000000
   H     58.66000000    44.81000000    -4.92000000
   N     56.64000000    46.60000000    -3.63000000
   C     56.42000000    47.86000000    -2.96000000
   C     56.51000000    47.69000000    -1.45000000
   O     56.50000000    46.54000000    -1.00000000
   C     55.09000000    48.55000000    -3.26000000
   C     55.00000000    48.95000000    -4.73000000
   O     53.96000000    47.78000000    -2.89000000
   H     56.30000000    45.76000000    -3.17000000
   H     57.15000000    48.62000000    -3.25000000
   H     55.12000000    49.44000000    -2.63000000
   H     53.17000000    48.10000000    -3.33000000
   H     55.85000000    49.60000000    -4.90000000
   H     55.17000000    48.10000000    -5.39000000
   H     54.10000000    49.53000000    -4.88000000
   N     56.67000000    48.81000000    -0.75000000
   C     56.76000000    48.85000000     0.70000000
   C     55.38000000    49.09000000     1.30000000
   O     54.73000000    50.06000000     0.91000000
   C     57.86000000    49.78000000     1.20000000
   C     59.21000000    49.36000000     0.63000000
   C     57.86000000    50.08000000     2.70000000
   C     60.29000000    50.40000000     0.93000000
   H     56.99000000    49.63000000    -1.24000000
   H     57.09000000    47.86000000     1.02000000
   H     57.53000000    50.72000000     0.76000000
   H     59.09000000    49.22000000    -0.44000000
   H     59.66000000    48.45000000     1.05000000
   H     58.46000000    50.95000000     2.92000000
   H     56.85000000    50.40000000     2.97000000
   H     58.18000000    49.21000000     3.27000000
   H     61.21000000    50.30000000     0.36000000
   H     59.87000000    51.36000000     0.63000000
   H     60.52000000    50.47000000     1.99000000
   N     54.91000000    48.26000000     2.23000000
   C     53.83000000    48.61000000     3.13000000
   C     54.26000000    49.15000000     4.49000000
   O     55.44000000    49.07000000     4.82000000
   C     52.94000000    47.40000000     3.39000000
   C     52.59000000    46.48000000     2.23000000
   O     53.32000000    45.48000000     2.02000000
   O     51.62000000    46.80000000     1.51000000
   H     55.53000000    47.49000000     2.47000000
   H     53.24000000    49.45000000     2.76000000
   H     52.03000000    47.90000000     3.74000000
   H     53.52000000    46.85000000     4.13000000
   N     53.35000000    49.75000000     5.25000000
   C     53.68000000    50.40000000     6.51000000
   C     54.42000000    49.49000000     7.48000000
   O     55.42000000    49.95000000     8.03000000
   C     52.41000000    50.89000000     7.20000000
   C     52.55000000    51.35000000     8.64000000
   C     53.28000000    52.51000000     8.94000000
   C     51.91000000    50.65000000     9.67000000
   C     53.38000000    53.04000000    10.23000000
   C     51.95000000    51.19000000    10.96000000
   C     52.67000000    52.36000000    11.23000000
   H     52.38000000    49.71000000     4.99000000
   H     54.31000000    51.27000000     6.35000000
   H     51.58000000    50.22000000     7.02000000
   H     52.05000000    51.76000000     6.65000000
   H     53.79000000    53.09000000     8.19000000
   H     51.41000000    49.70000000     9.52000000
   H     53.94000000    53.94000000    10.44000000
   H     51.54000000    50.59000000    11.75000000
   H     52.64000000    52.76000000    12.23000000
   N     54.21000000    48.18000000     7.64000000
   C     54.99000000    47.39000000     8.58000000
   C     56.40000000    47.11000000     8.08000000
   O     57.24000000    46.80000000     8.92000000
   C     54.06000000    46.21000000     8.80000000
   C     52.68000000    46.66000000     8.32000000
   C     53.04000000    47.51000000     7.11000000
   H     54.98000000    47.89000000     9.55000000
   H     54.39000000    45.30000000     8.29000000
   H     53.96000000    45.99000000     9.86000000
   H     52.03000000    45.90000000     7.89000000
   H     52.21000000    47.33000000     9.05000000
   H     53.35000000    46.89000000     6.27000000
   H     52.23000000    48.18000000     6.83000000
   N     56.63000000    47.17000000     6.77000000
   C     57.91000000    47.02000000     6.10000000
   C     58.80000000    48.25000000     6.19000000
   O     60.03000000    48.26000000     6.14000000
   C     57.63000000    46.59000000     4.67000000
   C     56.64000000    45.44000000     4.53000000
   C     56.20000000    45.10000000     3.11000000
   O     56.34000000    45.94000000     2.20000000
   O     55.84000000    43.94000000     2.83000000
   H     55.90000000    47.55000000     6.18000000
   H     58.52000000    46.24000000     6.54000000
   H     58.57000000    46.33000000     4.18000000
   H     57.32000000    47.47000000     4.12000000
   H     55.75000000    45.68000000     5.11000000
   H     57.10000000    44.53000000     4.93000000
   N     58.10000000    49.38000000     6.30000000
   C     58.70000000    50.68000000     6.55000000
   H     59.64800000    50.75000000     6.01700000
   H     58.02800000    51.46400000     6.20100000
   H     58.87500000    50.80000000     7.61900000
   H     57.11000000    49.37000000     6.09000000
  Ca     55.04000000    44.68000000     0.35000000
   O     53.77000000    46.75000000    -0.53600000
   H     53.78000000    47.11000000    -1.42600000
   H     52.90000000    46.94000000    -0.20600000
   O     52.36000000    44.20000000    -0.41600000
   H     51.57000000    44.44000000    -0.90600000
   H     52.25000000    43.26000000    -0.22600000

Ca 1.00



