%chk=loop4.holoCaM.run17.water2.chk
%nprocshared=20
%mem=10GB
%nosave
#b3lyp/svp scf=(tight,noincore,xqc) Test 
#IOP(5/87=12) Density=Current Pop=(MK,readradii) iop(6/33=2) iop(6/42=6)

loop4.holoCaM.run17.water2 

   -3  1 
   C     53.13000000    34.63000000    23.88000000
   C     54.46000000    33.89000000    23.95000000
   O     55.26000000    33.88000000    23.02000000
   H     52.38200000    34.08700000    24.45800000
   H     53.24900000    35.63200000    24.29100000
   H     52.80600000    34.69900000    22.84200000
   N     54.57000000    33.18000000    25.07000000
   C     55.70000000    32.37000000    25.49000000
   C     55.79000000    31.13000000    24.60000000
   O     55.31000000    30.06000000    24.98000000
   C     55.70000000    32.11000000    26.99000000
   C     56.83000000    31.28000000    27.59000000
   O     56.71000000    30.71000000    28.70000000
   O     57.94000000    31.31000000    27.03000000
   H     53.96000000    33.48000000    25.82000000
   H     56.56000000    32.98000000    25.22000000
   H     54.75000000    31.64000000    27.24000000
   H     55.73000000    33.10000000    27.45000000
   N     56.55000000    31.30000000    23.52000000
   C     56.67000000    30.26000000    22.52000000
   C     57.39000000    29.04000000    23.07000000
   O     56.95000000    27.91000000    22.86000000
   C     57.34000000    30.76000000    21.24000000
   C     56.47000000    31.90000000    20.74000000
   C     57.37000000    29.69000000    20.15000000
   C     56.59000000    32.44000000    19.32000000
   H     56.93000000    32.22000000    23.36000000
   H     55.67000000    29.87000000    22.34000000
   H     58.38000000    31.02000000    21.47000000
   H     56.68000000    32.74000000    21.41000000
   H     55.42000000    31.64000000    20.86000000
   H     56.39000000    29.50000000    19.73000000
   H     58.14000000    29.89000000    19.41000000
   H     57.74000000    28.76000000    20.59000000
   H     56.41000000    31.58000000    18.66000000
   H     55.97000000    33.30000000    19.10000000
   H     57.61000000    32.79000000    19.17000000
   N     58.47000000    29.30000000    23.81000000
   C     59.41000000    28.26000000    24.18000000
   C     59.39000000    27.78000000    25.63000000
   O     59.88000000    26.70000000    25.94000000
   C     60.82000000    28.74000000    23.83000000
   C     61.26000000    30.10000000    24.36000000
   O     62.14000000    30.73000000    23.76000000
   O     60.68000000    30.63000000    25.34000000
   H     58.78000000    30.23000000    24.06000000
   H     59.09000000    27.39000000    23.61000000
   H     60.86000000    28.72000000    22.74000000
   H     61.56000000    28.02000000    24.18000000
   N     58.68000000    28.51000000    26.50000000
   C     58.23000000    28.08000000    27.81000000
   C     59.20000000    28.58000000    28.87000000
   O     60.19000000    27.89000000    29.12000000
   H     58.33000000    29.40000000    26.19000000
   H     58.06000000    27.00000000    27.85000000
   H     57.29000000    28.60000000    27.97000000
   N     58.99000000    29.63000000    29.66000000
   C     59.70000000    30.01000000    30.87000000
   C     58.90000000    30.94000000    31.76000000
   O     59.20000000    31.07000000    32.94000000
   C     60.96000000    30.72000000    30.38000000
   C     60.78000000    31.73000000    29.26000000
   O     61.68000000    31.92000000    28.42000000
   O     59.81000000    32.51000000    29.12000000
   H     58.13000000    30.11000000    29.46000000
   H     59.95000000    29.13000000    31.45000000
   H     61.69000000    29.96000000    30.07000000
   H     61.41000000    31.27000000    31.21000000
   N     57.87000000    31.59000000    31.20000000
   C     57.02000000    32.54000000    31.89000000
   C     57.49000000    33.97000000    31.70000000
   O     57.09000000    34.73000000    32.58000000
   H     57.67000000    31.45000000    30.22000000
   H     56.95000000    32.27000000    32.95000000
   H     56.00000000    32.62000000    31.51000000
   N     58.27000000    34.32000000    30.67000000
   C     58.76000000    35.63000000    30.31000000
   C     58.74000000    35.80000000    28.80000000
   O     58.70000000    34.86000000    28.01000000
   C     60.00000000    36.04000000    31.09000000
   C     61.23000000    35.21000000    30.75000000
   C     62.41000000    35.70000000    31.58000000
   N     63.60000000    35.24000000    31.17000000
   O     62.30000000    36.50000000    32.50000000
   H     58.42000000    33.55000000    30.03000000
   H     58.01000000    36.33000000    30.68000000
   H     59.81000000    35.87000000    32.15000000
   H     60.16000000    37.09000000    30.81000000
   H     61.40000000    35.34000000    29.68000000
   H     61.08000000    34.15000000    30.93000000
   H     63.70000000    34.73000000    30.30000000
   H     64.45000000    35.56000000    31.61000000
   N     58.71000000    37.05000000    28.33000000
   C     58.81000000    37.34000000    26.91000000
   C     60.13000000    38.07000000    26.68000000
   O     60.44000000    39.11000000    27.25000000
   C     57.59000000    37.98000000    26.27000000
   C     56.36000000    37.09000000    26.12000000
   C     57.14000000    39.25000000    26.99000000
   H     58.61000000    37.83000000    28.96000000
   H     58.99000000    36.42000000    26.36000000
   H     57.81000000    38.28000000    25.24000000
   H     56.68000000    36.28000000    25.46000000
   H     56.09000000    36.60000000    27.06000000
   H     55.55000000    37.75000000    25.80000000
   H     56.49000000    39.72000000    26.26000000
   H     56.63000000    39.01000000    27.92000000
   H     58.01000000    39.86000000    27.27000000
   N     60.99000000    37.52000000    25.83000000
   C     62.05000000    38.25000000    25.16000000
   C     61.49000000    39.13000000    24.06000000
   O     60.31000000    39.04000000    23.76000000
   C     63.11000000    37.29000000    24.63000000
   C     62.91000000    36.77000000    23.21000000
   N     62.05000000    35.77000000    23.01000000
   O     63.39000000    37.28000000    22.20000000
   H     60.82000000    36.61000000    25.41000000
   H     62.73000000    38.78000000    25.83000000
   H     63.30000000    36.41000000    25.25000000
   H     64.09000000    37.74000000    24.71000000
   H     61.64000000    35.17000000    23.71000000
   H     62.07000000    35.39000000    22.08000000
   N     62.31000000    39.93000000    23.36000000
   C     61.85000000    40.85000000    22.34000000
   C     61.12000000    40.18000000    21.18000000
   O     60.20000000    40.82000000    20.67000000
   C     62.98000000    41.77000000    21.90000000
   C     62.45000000    43.01000000    21.22000000
   C     61.91000000    44.04000000    21.99000000
   C     62.41000000    43.14000000    19.82000000
   C     61.25000000    45.14000000    21.43000000
   C     61.69000000    44.18000000    19.24000000
   C     61.13000000    45.21000000    20.03000000
   O     60.42000000    46.23000000    19.46000000
   H     63.31000000    39.96000000    23.51000000
   H     61.15000000    41.55000000    22.81000000
   H     63.68000000    41.29000000    21.22000000
   H     63.56000000    42.16000000    22.74000000
   H     62.00000000    44.12000000    23.07000000
   H     62.77000000    42.30000000    19.25000000
   H     60.76000000    45.88000000    22.05000000
   H     61.39000000    44.28000000    18.21000000
   H     60.57000000    46.19000000    18.52000000
   N     61.49000000    39.00000000    20.69000000
   C     60.80000000    38.45000000    19.54000000
   C     59.37000000    38.04000000    19.86000000
   O     58.42000000    38.14000000    19.09000000
   C     61.51000000    37.22000000    18.99000000
   C     62.94000000    37.40000000    18.48000000
   C     63.49000000    36.18000000    17.76000000
   O     63.07000000    35.90000000    16.61000000
   O     64.32000000    35.52000000    18.42000000
   H     62.05000000    38.33000000    21.20000000
   H     60.89000000    39.23000000    18.78000000
   H     60.92000000    36.74000000    18.21000000
   H     61.63000000    36.57000000    19.86000000
   H     63.54000000    37.70000000    19.34000000
   H     62.95000000    38.27000000    17.83000000
   N     59.21000000    37.49000000    21.07000000
   C     57.90000000    37.15000000    21.60000000
   C     57.08000000    38.41000000    21.84000000
   O     55.85000000    38.30000000    21.84000000
   C     58.12000000    36.31000000    22.86000000
   C     58.74000000    34.94000000    22.65000000
   C     59.17000000    34.21000000    23.92000000
   O     59.89000000    34.85000000    24.71000000
   O     58.96000000    33.00000000    24.17000000
   H     60.02000000    37.36000000    21.65000000
   H     57.31000000    36.52000000    20.95000000
   H     57.16000000    36.08000000    23.34000000
   H     58.69000000    36.84000000    23.62000000
   H     59.60000000    35.06000000    21.98000000
   H     57.93000000    34.37000000    22.20000000
   N     57.79000000    39.48000000    22.21000000
   C     57.14000000    40.70000000    22.63000000
   H     56.16300000    40.46400000    23.05100000
   H     57.75000000    41.19600000    23.38500000
   H     57.01500000    41.36000000    21.77200000
   H     58.78000000    39.40000000    22.38000000
  Ca     60.05000000    32.85000000    26.55000000
   O     62.41000000    33.16000000    24.77000000
   H     62.53000000    32.30000000    24.37000000
   H     63.28000000    33.39000000    25.11000000
   O     61.88000000    34.92000000    26.91000000
   H     62.19000000    34.58000000    26.07000000
   H     62.51000000    34.59000000    27.55000000

Ca 1.00



