%chk=loop3.holoCaM.run14.water2.chk
%nprocshared=20
%mem=10GB
%nosave
#b3lyp/svp scf=(tight,noincore,xqc) Test 
#IOP(5/87=12) Density=Current Pop=(MK,readradii) iop(6/33=2) iop(6/42=6)

loop3.holoCaM.run14.water2 

   0  1 
   C     55.00000000    41.88000000    31.27000000
   C     54.52000000    40.70000000    32.10000000
   O     54.18000000    40.92000000    33.26000000
   H     56.00400000    41.67700000    30.89700000
   H     54.32400000    42.03200000    30.42800000
   H     55.01800000    42.77700000    31.88900000
   N     54.82000000    39.51000000    31.59000000
   C     54.51000000    38.23000000    32.20000000
   C     55.75000000    37.78000000    32.97000000
   O     56.43000000    36.81000000    32.66000000
   C     54.04000000    37.22000000    31.16000000
   C     53.62000000    35.85000000    31.67000000
   O     53.27000000    35.76000000    32.86000000
   O     53.64000000    34.88000000    30.88000000
   H     55.22000000    39.46000000    30.67000000
   H     53.67000000    38.37000000    32.88000000
   H     54.90000000    37.09000000    30.51000000
   H     53.25000000    37.66000000    30.55000000
   N     56.19000000    38.61000000    33.92000000
   C     57.52000000    38.56000000    34.50000000
   C     57.72000000    37.35000000    35.40000000
   O     58.86000000    36.89000000    35.50000000
   C     57.85000000    39.91000000    35.13000000
   C     59.31000000    40.06000000    35.55000000
   C     60.36000000    40.13000000    34.45000000
   C     61.74000000    40.63000000    34.86000000
   N     62.59000000    40.63000000    33.66000000
   H     55.46000000    39.16000000    34.35000000
   H     58.17000000    38.42000000    33.63000000
   H     57.23000000    40.04000000    36.02000000
   H     57.62000000    40.70000000    34.41000000
   H     59.59000000    39.30000000    36.28000000
   H     59.41000000    40.94000000    36.18000000
   H     59.96000000    40.77000000    33.67000000
   H     60.35000000    39.12000000    34.03000000
   H     62.07000000    40.07000000    35.74000000
   H     61.60000000    41.65000000    35.23000000
   H     62.25000000    41.16000000    32.87000000
   H     63.46000000    41.06000000    33.93000000
   H     62.78000000    39.67000000    33.39000000
   N     56.71000000    36.67000000    35.94000000
   C     56.74000000    35.37000000    36.57000000
   C     56.79000000    34.24000000    35.55000000
   O     57.01000000    33.10000000    35.95000000
   C     55.55000000    35.26000000    37.52000000
   C     54.27000000    35.31000000    36.70000000
   O     53.27000000    34.78000000    37.23000000
   O     54.08000000    35.99000000    35.67000000
   H     55.77000000    36.92000000    35.67000000
   H     57.68000000    35.39000000    37.12000000
   H     55.59000000    36.11000000    38.21000000
   H     55.70000000    34.32000000    38.06000000
   N     56.43000000    34.45000000    34.28000000
   C     56.46000000    33.34000000    33.36000000
   C     55.37000000    32.29000000    33.56000000
   O     55.59000000    31.22000000    32.99000000
   H     56.33000000    35.36000000    33.86000000
   H     57.35000000    32.73000000    33.54000000
   H     56.42000000    33.76000000    32.35000000
   N     54.19000000    32.55000000    34.12000000
   C     53.15000000    31.53000000    34.14000000
   C     52.27000000    31.40000000    32.91000000
   O     51.25000000    30.72000000    32.89000000
   C     52.28000000    31.52000000    35.39000000
   C     51.23000000    32.62000000    35.35000000
   N     50.01000000    32.32000000    35.80000000
   O     51.51000000    33.66000000    34.76000000
   H     54.02000000    33.49000000    34.43000000
   H     53.64000000    30.56000000    34.18000000
   H     52.90000000    31.80000000    36.25000000
   H     51.80000000    30.59000000    35.70000000
   H     49.84000000    31.39000000    36.16000000
   H     49.29000000    33.04000000    35.76000000
   N     52.59000000    32.09000000    31.81000000
   C     51.87000000    32.07000000    30.55000000
   C     50.67000000    32.99000000    30.44000000
   O     50.02000000    32.86000000    29.41000000
   H     53.37000000    32.72000000    31.92000000
   H     51.60000000    31.07000000    30.22000000
   H     52.57000000    32.36000000    29.76000000
   N     50.34000000    33.88000000    31.38000000
   C     49.07000000    34.56000000    31.51000000
   C     49.19000000    35.96000000    32.09000000
   O     50.00000000    36.01000000    33.01000000
   C     48.20000000    33.74000000    32.45000000
   C     47.89000000    32.36000000    31.93000000
   C     47.93000000    31.19000000    32.70000000
   C     47.17000000    32.28000000    30.73000000
   C     47.48000000    29.97000000    32.17000000
   C     46.82000000    31.07000000    30.11000000
   C     46.96000000    29.89000000    30.86000000
   O     46.66000000    28.68000000    30.31000000
   H     51.00000000    33.99000000    32.14000000
   H     48.61000000    34.58000000    30.52000000
   H     47.23000000    34.24000000    32.50000000
   H     48.69000000    33.63000000    33.42000000
   H     48.55000000    31.16000000    33.58000000
   H     46.92000000    33.19000000    30.21000000
   H     47.54000000    29.04000000    32.70000000
   H     46.30000000    31.14000000    29.17000000
   H     46.15000000    28.69000000    29.50000000
   N     48.52000000    37.03000000    31.63000000
   C     48.62000000    38.36000000    32.19000000
   C     47.42000000    38.64000000    33.08000000
   O     46.31000000    38.36000000    32.64000000
   C     48.62000000    39.44000000    31.11000000
   C     49.93000000    39.39000000    30.33000000
   C     48.21000000    40.83000000    31.60000000
   C     51.17000000    39.84000000    31.10000000
   H     47.88000000    36.97000000    30.86000000
   H     49.50000000    38.50000000    32.82000000
   H     47.83000000    39.15000000    30.41000000
   H     49.75000000    40.17000000    29.60000000
   H     50.13000000    38.40000000    29.93000000
   H     48.96000000    41.18000000    32.32000000
   H     48.08000000    41.58000000    30.83000000
   H     47.21000000    40.77000000    32.03000000
   H     52.02000000    40.16000000    30.49000000
   H     50.90000000    40.69000000    31.73000000
   H     51.50000000    39.20000000    31.92000000
   N     47.70000000    39.16000000    34.28000000
   C     46.74000000    39.46000000    35.32000000
   C     46.73000000    40.93000000    35.71000000
   O     47.60000000    41.67000000    35.24000000
   C     47.14000000    38.78000000    36.62000000
   O     48.50000000    38.93000000    36.98000000
   H     48.68000000    39.32000000    34.45000000
   H     45.73000000    39.13000000    35.06000000
   H     46.92000000    37.72000000    36.47000000
   H     46.54000000    39.08000000    37.48000000
   H     49.13000000    38.70000000    36.30000000
   N     45.81000000    41.39000000    36.56000000
   C     45.41000000    42.78000000    36.61000000
   C     46.56000000    43.71000000    36.96000000
   O     46.56000000    44.82000000    36.43000000
   C     44.29000000    43.14000000    37.59000000
   H     45.27000000    40.73000000    37.10000000
   H     45.14000000    43.06000000    35.59000000
   H     43.94000000    44.17000000    37.54000000
   H     43.46000000    42.50000000    37.29000000
   H     44.61000000    42.96000000    38.62000000
   N     47.53000000    43.32000000    37.80000000
   C     48.67000000    44.13000000    38.17000000
   C     49.70000000    44.11000000    37.05000000
   O     50.54000000    44.99000000    36.92000000
   C     49.15000000    43.66000000    39.54000000
   H     47.40000000    42.41000000    38.22000000
   H     48.37000000    45.17000000    38.33000000
   H     50.06000000    44.19000000    39.81000000
   H     48.43000000    43.94000000    40.31000000
   H     49.34000000    42.59000000    39.46000000
   N     49.70000000    43.16000000    36.11000000
   C     50.58000000    43.07000000    34.96000000
   C     49.93000000    43.72000000    33.75000000
   O     50.62000000    44.42000000    33.00000000
   C     50.83000000    41.59000000    34.69000000
   C     51.38000000    40.74000000    35.83000000
   C     51.52000000    39.32000000    35.30000000
   O     52.57000000    38.67000000    35.10000000
   O     50.44000000    38.68000000    35.28000000
   H     48.95000000    42.48000000    36.07000000
   H     51.53000000    43.53000000    35.23000000
   H     51.56000000    41.62000000    33.89000000
   H     49.95000000    41.08000000    34.28000000
   H     50.74000000    40.79000000    36.71000000
   H     52.40000000    41.05000000    36.05000000
   N     48.60000000    43.72000000    33.64000000
   C     47.82000000    44.59000000    32.78000000
   H     46.91100000    44.89400000    33.30000000
   H     48.40700000    45.47300000    32.52800000
   H     47.55400000    44.05700000    31.86700000
   H     48.19000000    43.11000000    34.33000000
  Ca     51.75000000    36.34000000    34.86000000
   O     51.47000000    36.85000000    37.76000000
   H     52.24000000    36.33000000    38.00000000
   H     51.27000000    37.37000000    38.54000000
   O     49.35000000    35.42000000    35.81000000
   H     49.26000000    35.89000000    36.64000000
   H     48.53000000    34.95000000    35.71000000

Ca 1.00



