%chk=loop4.holoCaM-CaMKII.run12.water2.chk
%nprocshared=20
%mem=10GB
%nosave
#b3lyp/svp scf=(tight,noincore,xqc) Test 
#IOP(5/87=12) Density=Current Pop=(MK,readradii) iop(6/33=2) iop(6/42=6)

loop4.holoCaM-CaMKII.run12.water2 

   -3  1 
   C     80.25000000    48.82000000    35.91000000
   C     79.33000000    47.71000000    36.39000000
   O     78.34000000    47.99000000    37.06000000
   H     81.19600000    48.39000000    35.58000000
   H     79.78100000    49.34700000    35.07900000
   H     80.43500000    49.51800000    36.72600000
   N     79.61000000    46.44000000    36.06000000
   C     78.90000000    45.23000000    36.43000000
   C     79.17000000    45.03000000    37.91000000
   O     80.33000000    44.92000000    38.31000000
   C     79.47000000    44.07000000    35.63000000
   C     78.97000000    42.74000000    36.19000000
   O     77.82000000    42.66000000    36.66000000
   O     79.72000000    41.74000000    36.10000000
   H     80.49000000    46.23000000    35.62000000
   H     77.83000000    45.40000000    36.43000000
   H     80.54000000    44.08000000    35.83000000
   H     79.26000000    44.09000000    34.56000000
   N     78.17000000    44.78000000    38.76000000
   C     78.35000000    44.67000000    40.19000000
   C     78.55000000    43.23000000    40.64000000
   O     79.26000000    43.03000000    41.63000000
   C     77.17000000    45.33000000    40.89000000
   C     76.98000000    46.81000000    40.54000000
   C     77.14000000    45.13000000    42.40000000
   C     78.25000000    47.63000000    40.69000000
   H     77.23000000    44.81000000    38.38000000
   H     79.20000000    45.26000000    40.55000000
   H     76.26000000    44.90000000    40.47000000
   H     76.09000000    47.19000000    41.04000000
   H     76.78000000    46.99000000    39.49000000
   H     77.11000000    44.06000000    42.64000000
   H     78.08000000    45.51000000    42.78000000
   H     76.25000000    45.54000000    42.89000000
   H     78.05000000    48.70000000    40.62000000
   H     78.85000000    47.41000000    41.57000000
   H     78.87000000    47.36000000    39.84000000
   N     77.96000000    42.26000000    39.95000000
   C     77.96000000    40.89000000    40.42000000
   C     79.27000000    40.14000000    40.22000000
   O     79.72000000    39.39000000    41.09000000
   C     76.87000000    40.07000000    39.74000000
   C     75.52000000    40.77000000    39.68000000
   O     75.41000000    41.78000000    38.95000000
   O     74.52000000    40.31000000    40.28000000
   H     77.36000000    42.49000000    39.17000000
   H     77.79000000    40.89000000    41.49000000
   H     76.81000000    39.16000000    40.34000000
   H     77.17000000    39.74000000    38.74000000
   N     79.80000000    40.40000000    39.02000000
   C     80.79000000    39.61000000    38.32000000
   C     80.13000000    38.64000000    37.35000000
   O     80.78000000    37.73000000    36.84000000
   H     79.38000000    41.12000000    38.45000000
   H     81.39000000    39.09000000    39.06000000
   H     81.45000000    40.22000000    37.70000000
   N     78.90000000    38.85000000    36.89000000
   C     78.26000000    38.14000000    35.80000000
   C     78.74000000    38.48000000    34.39000000
   O     78.43000000    37.82000000    33.40000000
   C     76.73000000    38.15000000    35.92000000
   C     76.04000000    39.50000000    35.94000000
   O     76.33000000    40.38000000    35.10000000
   O     75.13000000    39.78000000    36.76000000
   H     78.34000000    39.62000000    37.23000000
   H     78.56000000    37.10000000    35.93000000
   H     76.42000000    37.56000000    36.78000000
   H     76.36000000    37.54000000    35.09000000
   N     79.48000000    39.58000000    34.23000000
   C     80.00000000    40.01000000    32.95000000
   C     79.06000000    40.94000000    32.20000000
   O     79.35000000    41.18000000    31.03000000
   H     79.62000000    40.25000000    34.97000000
   H     79.97000000    39.18000000    32.25000000
   H     80.95000000    40.53000000    33.06000000
   N     77.96000000    41.46000000    32.74000000
   C     76.98000000    42.27000000    32.04000000
   C     76.49000000    43.41000000    32.92000000
   O     76.51000000    43.45000000    34.15000000
   C     75.89000000    41.27000000    31.66000000
   C     76.30000000    40.14000000    30.73000000
   C     75.14000000    39.49000000    29.98000000
   N     75.42000000    38.37000000    29.33000000
   O     74.02000000    40.01000000    29.92000000
   H     77.77000000    41.40000000    33.73000000
   H     77.44000000    42.65000000    31.12000000
   H     75.20000000    41.85000000    31.04000000
   H     75.42000000    40.96000000    32.59000000
   H     76.89000000    39.34000000    31.18000000
   H     76.92000000    40.51000000    29.92000000
   H     76.38000000    38.04000000    29.30000000
   H     74.65000000    37.89000000    28.88000000
   N     75.99000000    44.38000000    32.16000000
   C     75.55000000    45.67000000    32.68000000
   C     74.09000000    45.94000000    32.36000000
   O     73.76000000    46.41000000    31.27000000
   C     76.43000000    46.85000000    32.29000000
   C     76.21000000    48.10000000    33.13000000
   C     77.92000000    46.52000000    32.36000000
   H     75.97000000    44.24000000    31.16000000
   H     75.62000000    45.71000000    33.77000000
   H     76.25000000    47.11000000    31.25000000
   H     76.89000000    48.87000000    32.76000000
   H     75.20000000    48.51000000    33.18000000
   H     76.47000000    47.92000000    34.18000000
   H     78.20000000    45.72000000    31.67000000
   H     78.46000000    47.43000000    32.08000000
   H     78.17000000    46.18000000    33.36000000
   N     73.22000000    45.74000000    33.35000000
   C     71.87000000    46.24000000    33.47000000
   C     71.72000000    47.76000000    33.45000000
   O     72.63000000    48.50000000    33.81000000
   C     71.38000000    45.61000000    34.77000000
   C     69.87000000    45.59000000    34.99000000
   N     69.50000000    45.19000000    36.21000000
   O     69.03000000    45.99000000    34.19000000
   H     73.64000000    45.27000000    34.14000000
   H     71.33000000    45.76000000    32.65000000
   H     71.86000000    46.02000000    35.66000000
   H     71.59000000    44.55000000    34.72000000
   H     70.14000000    44.90000000    36.94000000
   H     68.54000000    44.93000000    36.36000000
   N     70.51000000    48.27000000    33.19000000
   C     70.15000000    49.66000000    33.30000000
   C     70.36000000    50.17000000    34.72000000
   O     70.95000000    51.21000000    35.00000000
   C     68.71000000    49.81000000    32.83000000
   C     68.21000000    51.24000000    32.87000000
   C     68.71000000    52.16000000    31.94000000
   C     67.28000000    51.66000000    33.83000000
   C     68.28000000    53.49000000    31.86000000
   C     66.78000000    52.96000000    33.70000000
   C     67.24000000    53.87000000    32.73000000
   O     66.87000000    55.18000000    32.77000000
   H     69.76000000    47.60000000    33.10000000
   H     70.85000000    50.17000000    32.63000000
   H     68.10000000    49.08000000    33.36000000
   H     68.63000000    49.42000000    31.82000000
   H     69.49000000    51.76000000    31.30000000
   H     66.89000000    50.99000000    34.58000000
   H     68.67000000    54.17000000    31.12000000
   H     66.03000000    53.34000000    34.38000000
   H     66.05000000    55.35000000    33.23000000
   N     69.97000000    49.32000000    35.67000000
   C     70.09000000    49.47000000    37.11000000
   C     71.51000000    49.76000000    37.57000000
   O     71.79000000    50.50000000    38.51000000
   C     69.45000000    48.29000000    37.84000000
   C     68.85000000    48.60000000    39.21000000
   C     67.58000000    49.44000000    39.30000000
   O     67.64000000    50.66000000    39.55000000
   O     66.50000000    48.91000000    38.98000000
   H     69.66000000    48.41000000    35.36000000
   H     69.57000000    50.39000000    37.39000000
   H     70.28000000    47.59000000    37.93000000
   H     68.62000000    47.95000000    37.21000000
   H     69.58000000    49.15000000    39.81000000
   H     68.72000000    47.66000000    39.74000000
   N     72.45000000    49.07000000    36.92000000
   C     73.88000000    49.20000000    37.13000000
   C     74.53000000    50.30000000    36.29000000
   O     75.49000000    50.93000000    36.71000000
   C     74.50000000    47.87000000    36.73000000
   C     73.97000000    46.68000000    37.53000000
   C     74.58000000    45.41000000    36.96000000
   O     75.61000000    44.95000000    37.49000000
   O     74.12000000    44.86000000    35.94000000
   H     72.28000000    48.46000000    36.14000000
   H     74.19000000    49.41000000    38.15000000
   H     75.57000000    47.96000000    36.95000000
   H     74.46000000    47.71000000    35.65000000
   H     72.88000000    46.66000000    37.57000000
   H     74.26000000    46.80000000    38.58000000
   N     73.99000000    50.55000000    35.09000000
   C     74.43000000    51.69000000    34.31000000
   H     75.43400000    51.50300000    33.92900000
   H     73.74700000    51.84400000    33.47400000
   H     74.44100000    52.57900000    34.94000000
   H     73.36000000    49.87000000    34.68000000
  Ca     75.29000000    42.43000000    36.39000000
   O     72.91000000    42.27000000    37.62000000
   H     72.34000000    42.98000000    37.93000000
   H     72.70000000    41.53000000    38.20000000
   O     73.71000000    41.47000000    34.62000000
   H     73.88000000    40.92000000    33.85000000
   H     73.14000000    40.93000000    35.18000000

Ca 1.00



