%chk=loop1.apoCaM-CA-Ng.Init293.run89.water5.chk
%nprocshared=20
%mem=10GB
%nosave
#b3lyp/svp scf=(tight,noincore,xqc) Test 
#IOP(5/87=12) Density=Current Pop=(MK,readradii) iop(6/33=2) iop(6/42=6)

loop1.apoCaM-CA-Ng.Init293.run89.water5 

   0  1 
   C     82.29000000    99.07000000    14.74000000
   C     82.90000000   100.47000000    14.73000000
   O     83.39000000   100.99000000    13.73000000
   H     81.32800000    99.09000000    14.22700000
   H     82.95900000    98.37800000    14.22900000
   H     82.14600000    98.74300000    15.77000000
   N     82.99000000   101.07000000    15.92000000
   C     83.39000000   102.46000000    15.98000000
   C     84.90000000   102.53000000    16.11000000
   O     85.50000000   103.58000000    15.90000000
   C     82.70000000   103.23000000    17.11000000
   C     82.79000000   102.54000000    18.47000000
   O     81.95000000   101.66000000    18.73000000
   O     83.74000000   102.92000000    19.19000000
   H     82.55000000   100.68000000    16.74000000
   H     83.17000000   102.98000000    15.05000000
   H     81.65000000   103.39000000    16.87000000
   H     83.17000000   104.21000000    17.21000000
   N     85.63000000   101.46000000    16.44000000
   C     87.03000000   101.55000000    16.84000000
   C     87.96000000   101.56000000    15.64000000
   O     87.81000000   100.72000000    14.76000000
   C     87.42000000   100.37000000    17.72000000
   C     87.11000000   100.45000000    19.22000000
   C     87.57000000    99.14000000    19.87000000
   C     89.04000000    99.11000000    20.27000000
   N     89.44000000    97.73000000    20.57000000
   H     85.12000000   100.61000000    16.61000000
   H     87.11000000   102.47000000    17.41000000
   H     88.50000000   100.22000000    17.76000000
   H     86.93000000    99.53000000    17.24000000
   H     86.03000000   100.53000000    19.34000000
   H     87.64000000   101.25000000    19.74000000
   H     87.42000000    98.28000000    19.22000000
   H     86.96000000    99.03000000    20.76000000
   H     89.22000000    99.75000000    21.13000000
   H     89.77000000    99.47000000    19.53000000
   H     88.71000000    97.35000000    21.15000000
   H     89.59000000    97.18000000    19.73000000
   H     90.30000000    97.70000000    21.11000000
   N     88.90000000   102.50000000    15.46000000
   C     89.30000000   103.58000000    16.34000000
   C     89.80000000   104.83000000    15.64000000
   O     90.84000000   105.46000000    15.84000000
   C     90.20000000   103.08000000    17.46000000
   C     91.44000000   102.36000000    16.96000000
   O     92.32000000   102.19000000    17.83000000
   O     91.59000000   101.93000000    15.80000000
   H     89.48000000   102.48000000    14.63000000
   H     88.41000000   103.89000000    16.89000000
   H     89.62000000   102.40000000    18.09000000
   H     90.62000000   103.93000000    18.01000000
   N     89.05000000   105.35000000    14.65000000
   C     87.70000000   105.07000000    14.22000000
   C     87.48000000   105.66000000    12.83000000
   O     88.27000000   106.46000000    12.33000000
   H     89.46000000   106.20000000    14.29000000
   H     86.87000000   105.49000000    14.80000000
   H     87.50000000   104.01000000    14.07000000
   N     86.49000000   105.29000000    12.03000000
   C     85.66000000   104.12000000    12.23000000
   C     84.22000000   104.45000000    11.88000000
   O     83.94000000   105.43000000    11.19000000
   C     86.13000000   102.89000000    11.44000000
   C     87.63000000   102.75000000    11.26000000
   O     88.23000000   101.95000000    12.01000000
   O     88.27000000   103.49000000    10.48000000
   H     86.55000000   105.78000000    11.15000000
   H     85.70000000   103.81000000    13.27000000
   H     85.66000000   103.02000000    10.47000000
   H     85.59000000   102.02000000    11.81000000
   N     83.34000000   103.61000000    12.44000000
   C     81.95000000   103.44000000    12.08000000
   C     81.82000000   102.67000000    10.78000000
   O     80.81000000   102.77000000    10.09000000
   H     83.67000000   102.92000000    13.09000000
   H     81.50000000   104.44000000    12.10000000
   H     81.53000000   102.88000000    12.92000000
   N     82.78000000   101.83000000    10.37000000
   C     82.83000000   100.97000000     9.21000000
   C     83.44000000    99.62000000     9.55000000
   O     84.34000000    99.60000000    10.39000000
   C     83.63000000   101.57000000     8.06000000
   C     83.41000000   103.05000000     7.74000000
   O     83.21000000   100.91000000     6.89000000
   H     83.65000000   101.88000000    10.88000000
   H     81.84000000   100.88000000     8.76000000
   H     84.68000000   101.37000000     8.21000000
   H     83.99000000   100.59000000     6.42000000
   H     83.90000000   103.25000000     6.78000000
   H     82.36000000   103.24000000     7.51000000
   H     83.68000000   103.76000000     8.52000000
   N     82.97000000    98.51000000     8.97000000
   C     83.57000000    97.21000000     9.13000000
   C     83.79000000    96.41000000     7.85000000
   O     82.87000000    96.19000000     7.07000000
   C     82.72000000    96.36000000    10.08000000
   C     83.12000000    94.91000000    10.35000000
   C     81.24000000    96.34000000     9.74000000
   C     84.52000000    94.79000000    10.92000000
   H     82.10000000    98.58000000     8.45000000
   H     84.53000000    97.32000000     9.63000000
   H     82.84000000    96.88000000    11.03000000
   H     83.10000000    94.37000000     9.40000000
   H     82.45000000    94.56000000    11.13000000
   H     80.65000000    95.62000000    10.31000000
   H     80.72000000    97.27000000     9.98000000
   H     81.13000000    96.11000000     8.68000000
   H     84.65000000    95.39000000    11.82000000
   H     84.54000000    93.74000000    11.23000000
   H     85.32000000    94.97000000    10.20000000
   N     84.92000000    95.71000000     7.81000000
   C     85.29000000    94.99000000     6.60000000
   C     86.06000000    93.70000000     6.84000000
   O     86.19000000    92.93000000     5.89000000
   C     86.03000000    95.85000000     5.59000000
   C     87.40000000    96.38000000     6.04000000
   O     85.18000000    96.88000000     5.13000000
   H     85.62000000    95.91000000     8.51000000
   H     84.35000000    94.59000000     6.21000000
   H     86.23000000    95.24000000     4.71000000
   H     84.29000000    96.56000000     4.97000000
   H     87.82000000    96.87000000     5.16000000
   H     87.34000000    96.97000000     6.95000000
   H     88.07000000    95.59000000     6.36000000
   N     86.51000000    93.41000000     8.07000000
   C     87.49000000    92.38000000     8.36000000
   C     88.88000000    92.65000000     7.79000000
   O     89.12000000    93.24000000     6.74000000
   C     87.12000000    90.96000000     7.95000000
   C     85.80000000    90.46000000     8.53000000
   O     88.08000000    90.11000000     8.54000000
   H     86.51000000    94.21000000     8.68000000
   H     87.65000000    92.43000000     9.43000000
   H     87.17000000    90.83000000     6.87000000
   H     87.77000000    89.25000000     8.27000000
   H     85.73000000    89.44000000     8.14000000
   H     85.81000000    90.51000000     9.62000000
   H     84.93000000    90.99000000     8.14000000
   N     89.90000000    92.37000000     8.61000000
   C     91.32000000    92.46000000     8.34000000
   C     92.25000000    92.83000000     9.49000000
   O     93.46000000    92.92000000     9.30000000
   C     91.74000000    91.17000000     7.65000000
   C     90.92000000    90.59000000     6.51000000
   C     91.51000000    89.31000000     5.93000000
   C     90.49000000    88.60000000     5.04000000
   N     89.98000000    89.36000000     3.88000000
   H     89.64000000    91.93000000     9.49000000
   H     91.53000000    93.27000000     7.64000000
   H     91.71000000    90.39000000     8.40000000
   H     92.75000000    91.29000000     7.23000000
   H     90.87000000    91.30000000     5.68000000
   H     89.96000000    90.24000000     6.89000000
   H     91.74000000    88.66000000     6.78000000
   H     92.45000000    89.52000000     5.42000000
   H     89.61000000    88.26000000     5.59000000
   H     90.97000000    87.73000000     4.60000000
   H     89.35000000    88.82000000     3.30000000
   H     89.35000000    90.08000000     4.22000000
   H     90.75000000    89.61000000     3.29000000
   N     91.84000000    93.21000000    10.70000000
   C     90.70000000    93.03000000    11.57000000
   C     90.09000000    91.64000000    11.65000000
   O     88.88000000    91.45000000    11.51000000
   C     89.71000000    94.18000000    11.34000000
   C     90.43000000    95.48000000    11.66000000
   C     89.60000000    96.67000000    12.12000000
   O     89.97000000    97.26000000    13.16000000
   O     88.49000000    96.98000000    11.63000000
   H     92.56000000    93.70000000    11.21000000
   H     91.03000000    93.19000000    12.60000000
   H     88.84000000    94.19000000    11.99000000
   H     89.42000000    94.23000000    10.29000000
   H     90.87000000    95.81000000    10.72000000
   H     91.18000000    95.30000000    12.43000000
   N     90.87000000    90.56000000    11.67000000
   C     90.38000000    89.20000000    11.57000000
   H     89.42500000    89.19600000    11.04500000
   H     91.09900000    88.59400000    11.01900000
   H     90.24600000    88.78700000    12.57000000
   H     91.85000000    90.79000000    11.73000000
  Ca     88.52000000    99.44000000    12.61000000
   O     87.14000000    99.46000000    10.27000000
   H     86.23000000    99.42000000     9.97000000
   H     87.66000000    99.44000000     9.46000000
   O     87.42000000    97.87000000    14.82000000
   H     87.68000000    96.95000000    14.89000000
   H     86.53000000    97.90000000    15.18000000
   O     85.70000000    99.52000000    13.03000000
   H     85.32000000   100.14000000    13.66000000
   H     85.03000000    99.42000000    12.36000000
   O     90.34000000    99.95000000    10.75000000
   H     90.76000000   100.79000000    10.59000000
   H     90.78000000    99.35000000    10.14000000
   O     90.77000000   100.10000000    13.95000000
   H     90.99000000   100.70000000    14.66000000
   H     91.59000000    99.97000000    13.48000000

Ca 1.00



