%chk=loop1.apoCaM-CA-Ng.Init293.run17.water3.chk
%nprocshared=20
%mem=10GB
%nosave
#b3lyp/svp scf=(tight,noincore,xqc) Test 
#IOP(5/87=12) Density=Current Pop=(MK,readradii) iop(6/33=2) iop(6/42=6)

loop1.apoCaM-CA-Ng.Init293.run17.water3 

   0  1 
   C     40.97000000     1.92000000    40.02000000
   C     40.31000000     0.56000000    40.22000000
   O     40.66000000    -0.36000000    39.49000000
   H     41.93900000     1.78600000    39.53900000
   H     40.33500000     2.54300000    39.39000000
   H     41.10900000     2.40300000    40.98700000
   N     39.22000000     0.45000000    40.97000000
   C     38.55000000    -0.79000000    41.30000000
   C     37.04000000    -0.65000000    41.38000000
   O     36.33000000    -1.56000000    41.81000000
   C     39.00000000    -1.34000000    42.65000000
   C     38.63000000    -0.46000000    43.83000000
   O     39.30000000     0.57000000    44.06000000
   O     37.66000000    -0.74000000    44.57000000
   H     38.90000000     1.27000000    41.46000000
   H     38.80000000    -1.53000000    40.54000000
   H     40.08000000    -1.40000000    42.55000000
   H     38.63000000    -2.36000000    42.77000000
   N     36.49000000     0.41000000    40.77000000
   C     35.11000000     0.81000000    40.91000000
   C     34.49000000     1.21000000    39.58000000
   O     34.24000000     2.40000000    39.37000000
   C     34.98000000     1.90000000    41.97000000
   C     35.68000000     1.52000000    43.27000000
   C     35.31000000     2.43000000    44.44000000
   C     35.86000000     1.98000000    45.79000000
   N     37.32000000     1.99000000    45.65000000
   H     37.07000000     0.79000000    40.04000000
   H     34.46000000     0.01000000    41.29000000
   H     33.91000000     2.09000000    42.03000000
   H     35.45000000     2.78000000    41.52000000
   H     36.73000000     1.65000000    43.02000000
   H     35.54000000     0.49000000    43.57000000
   H     34.23000000     2.42000000    44.57000000
   H     35.62000000     3.46000000    44.23000000
   H     35.62000000     0.94000000    46.02000000
   H     35.63000000     2.60000000    46.66000000
   H     37.67000000     2.74000000    45.07000000
   H     37.75000000     1.99000000    46.57000000
   H     37.64000000     1.11000000    45.26000000
   N     34.38000000     0.37000000    38.55000000
   C     34.49000000    -1.07000000    38.43000000
   C     33.65000000    -1.81000000    39.46000000
   O     32.71000000    -1.20000000    39.98000000
   C     35.97000000    -1.43000000    38.40000000
   C     36.40000000    -2.41000000    37.31000000
   O     35.54000000    -2.94000000    36.58000000
   O     37.58000000    -2.84000000    37.31000000
   H     34.12000000     0.86000000    37.71000000
   H     34.00000000    -1.29000000    37.49000000
   H     36.17000000    -1.89000000    39.37000000
   H     36.52000000    -0.51000000    38.21000000
   N     33.62000000    -3.12000000    39.70000000
   C     34.44000000    -4.18000000    39.14000000
   C     34.26000000    -5.53000000    39.81000000
   O     33.33000000    -5.82000000    40.56000000
   H     32.85000000    -3.46000000    40.26000000
   H     35.48000000    -3.84000000    39.14000000
   H     34.20000000    -4.21000000    38.08000000
   N     35.19000000    -6.47000000    39.61000000
   C     36.37000000    -6.26000000    38.80000000
   C     37.56000000    -5.62000000    39.49000000
   O     38.42000000    -4.98000000    38.89000000
   C     36.91000000    -7.58000000    38.23000000
   C     37.15000000    -8.61000000    39.32000000
   O     38.25000000    -8.56000000    39.91000000
   O     36.29000000    -9.48000000    39.61000000
   H     34.89000000    -7.42000000    39.75000000
   H     36.12000000    -5.66000000    37.92000000
   H     37.89000000    -7.43000000    37.78000000
   H     36.16000000    -7.85000000    37.48000000
   N     37.57000000    -5.75000000    40.82000000
   C     38.61000000    -5.30000000    41.73000000
   C     40.06000000    -5.64000000    41.42000000
   O     40.87000000    -4.95000000    42.03000000
   H     36.85000000    -6.33000000    41.21000000
   H     38.32000000    -5.66000000    42.72000000
   H     38.53000000    -4.22000000    41.81000000
   N     40.34000000    -6.58000000    40.51000000
   C     41.63000000    -7.14000000    40.17000000
   C     42.40000000    -6.11000000    39.36000000
   O     41.92000000    -5.56000000    38.37000000
   C     41.51000000    -8.56000000    39.63000000
   C     42.73000000    -9.13000000    38.92000000
   O     40.46000000    -8.57000000    38.68000000
   H     39.62000000    -7.01000000    39.95000000
   H     42.19000000    -7.17000000    41.10000000
   H     41.19000000    -9.28000000    40.38000000
   H     39.69000000    -8.73000000    39.23000000
   H     42.57000000   -10.11000000    38.46000000
   H     43.03000000    -8.45000000    38.11000000
   H     43.54000000    -9.15000000    39.64000000
   N     43.56000000    -5.64000000    39.82000000
   C     44.43000000    -4.57000000    39.38000000
   C     45.79000000    -5.08000000    38.90000000
   O     46.83000000    -4.90000000    39.54000000
   C     44.40000000    -3.42000000    40.37000000
   C     44.88000000    -2.10000000    39.76000000
   C     44.86000000    -3.73000000    41.79000000
   C     44.08000000    -1.61000000    38.56000000
   H     43.78000000    -6.04000000    40.73000000
   H     43.95000000    -4.22000000    38.47000000
   H     43.37000000    -3.19000000    40.65000000
   H     45.95000000    -2.17000000    39.54000000
   H     44.75000000    -1.35000000    40.54000000
   H     44.44000000    -4.71000000    42.02000000
   H     45.95000000    -3.78000000    41.85000000
   H     44.53000000    -2.93000000    42.46000000
   H     44.61000000    -1.95000000    37.68000000
   H     43.03000000    -1.92000000    38.55000000
   H     44.12000000    -0.52000000    38.64000000
   N     45.83000000    -5.75000000    37.75000000
   C     46.96000000    -6.51000000    37.26000000
   C     47.35000000    -6.29000000    35.81000000
   O     48.34000000    -6.80000000    35.29000000
   C     47.00000000    -8.02000000    37.53000000
   C     45.88000000    -8.75000000    36.81000000
   O     46.69000000    -8.32000000    38.87000000
   H     44.93000000    -5.97000000    37.35000000
   H     47.83000000    -6.11000000    37.78000000
   H     47.99000000    -8.42000000    37.30000000
   H     47.27000000    -7.73000000    39.36000000
   H     45.01000000    -8.08000000    36.83000000
   H     46.08000000    -9.03000000    35.77000000
   H     45.58000000    -9.69000000    37.26000000
   N     46.50000000    -5.49000000    35.15000000
   C     46.29000000    -5.26000000    33.73000000
   C     45.74000000    -6.44000000    32.95000000
   O     45.70000000    -7.57000000    33.44000000
   C     47.56000000    -4.69000000    33.12000000
   C     48.11000000    -3.49000000    33.90000000
   O     47.32000000    -4.12000000    31.85000000
   H     45.66000000    -5.27000000    35.66000000
   H     45.51000000    -4.51000000    33.66000000
   H     48.20000000    -5.57000000    33.10000000
   H     46.97000000    -3.24000000    32.02000000
   H     48.74000000    -2.93000000    33.21000000
   H     47.23000000    -2.96000000    34.26000000
   H     48.67000000    -3.74000000    34.79000000
   N     45.24000000    -6.10000000    31.76000000
   C     44.99000000    -7.04000000    30.69000000
   C     43.64000000    -7.09000000    29.98000000
   O     43.40000000    -8.06000000    29.27000000
   C     46.10000000    -6.99000000    29.65000000
   C     47.48000000    -7.37000000    30.18000000
   C     48.47000000    -7.03000000    29.07000000
   C     49.81000000    -7.52000000    29.59000000
   N     50.86000000    -7.15000000    28.62000000
   H     45.27000000    -5.13000000    31.45000000
   H     45.01000000    -8.05000000    31.09000000
   H     46.15000000    -6.02000000    29.15000000
   H     45.87000000    -7.80000000    28.96000000
   H     47.46000000    -8.45000000    30.36000000
   H     47.72000000    -6.74000000    31.04000000
   H     48.49000000    -5.96000000    28.85000000
   H     48.20000000    -7.57000000    28.16000000
   H     49.85000000    -8.60000000    29.69000000
   H     50.01000000    -7.03000000    30.55000000
   H     50.75000000    -6.16000000    28.45000000
   H     51.79000000    -7.36000000    28.95000000
   H     50.74000000    -7.61000000    27.73000000
   N     42.64000000    -6.24000000    30.21000000
   C     42.57000000    -5.01000000    30.97000000
   C     43.57000000    -3.93000000    30.55000000
   O     44.31000000    -3.41000000    31.38000000
   C     42.14000000    -5.22000000    32.42000000
   C     41.39000000    -3.98000000    32.91000000
   C     41.03000000    -4.05000000    34.39000000
   O     39.86000000    -4.35000000    34.73000000
   O     41.85000000    -3.74000000    35.27000000
   H     41.73000000    -6.57000000    29.92000000
   H     41.65000000    -4.59000000    30.57000000
   H     43.00000000    -5.45000000    33.04000000
   H     41.46000000    -6.07000000    32.47000000
   H     40.50000000    -3.73000000    32.33000000
   H     42.00000000    -3.11000000    32.68000000
   N     43.70000000    -3.69000000    29.24000000
   C     44.52000000    -2.59000000    28.78000000
   H     45.47700000    -2.97400000    28.42700000
   H     44.01300000    -2.07400000    27.96500000
   H     44.68900000    -1.89400000    29.60200000
   H     43.26000000    -4.22000000    28.50000000
  Ca     39.99000000    -4.03300000    37.16000000
   O     39.88000000    -6.70300000    36.56000000
   H     39.20000000    -6.78300000    35.90000000
   H     40.00000000    -7.59300000    36.89000000
   O     40.95000000    -3.10300000    39.45000000
   H     41.24000000    -2.20300000    39.60000000
   H     40.96000000    -3.50300000    40.31000000
   O     40.20000000    -1.40300000    36.99000000
   H     40.51000000    -0.92300000    37.76000000
   H     39.71000000    -0.76300000    36.48000000

Ca 1.00



