%chk=loop1.apoCaM-CA-Ng.Init31.run59.water4.chk
%nprocshared=20
%mem=10GB
%nosave
#b3lyp/svp scf=(tight,noincore,xqc) Test 
#IOP(5/87=12) Density=Current Pop=(MK,readradii) iop(6/33=2) iop(6/42=6)

loop1.apoCaM-CA-Ng.Init31.run59.water4 

   0  1 
   C     72.88000000    74.44000000    19.12000000
   C     72.64000000    75.45000000    18.01000000
   O     72.50000000    76.62000000    18.36000000
   H     73.68100000    74.79600000    19.76800000
   H     71.96800000    74.31800000    19.70400000
   H     73.16400000    73.48200000    18.68500000
   N     72.47000000    74.98000000    16.77000000
   C     72.19000000    75.83000000    15.63000000
   C     70.74000000    76.17000000    15.34000000
   O     69.77000000    75.51000000    15.71000000
   C     72.85000000    75.18000000    14.42000000
   C     73.03000000    76.02000000    13.17000000
   O     72.89000000    77.26000000    13.21000000
   O     73.19000000    75.43000000    12.08000000
   H     72.52000000    73.99000000    16.60000000
   H     72.78000000    76.72000000    15.83000000
   H     72.18000000    74.34000000    14.20000000
   H     73.84000000    74.76000000    14.62000000
   N     70.50000000    77.15000000    14.47000000
   C     69.26000000    77.78000000    14.06000000
   C     68.24000000    76.79000000    13.51000000
   O     67.12000000    76.78000000    14.03000000
   C     69.63000000    78.90000000    13.10000000
   C     70.02000000    80.15000000    13.88000000
   C     70.21000000    81.43000000    13.06000000
   C     68.82000000    81.99000000    12.80000000
   N     68.61000000    82.66000000    11.51000000
   H     71.29000000    77.62000000    14.06000000
   H     68.84000000    78.08000000    15.02000000
   H     68.92000000    79.15000000    12.31000000
   H     70.54000000    78.56000000    12.62000000
   H     70.99000000    79.97000000    14.34000000
   H     69.34000000    80.43000000    14.68000000
   H     70.73000000    81.26000000    12.12000000
   H     70.82000000    82.15000000    13.59000000
   H     68.49000000    82.54000000    13.68000000
   H     68.16000000    81.12000000    12.84000000
   H     67.66000000    82.97000000    11.38000000
   H     69.30000000    83.39000000    11.33000000
   H     68.65000000    81.94000000    10.81000000
   N     68.42000000    75.74000000    12.71000000
   C     69.61000000    75.43000000    11.93000000
   C     69.83000000    73.94000000    11.72000000
   O     68.92000000    73.13000000    11.85000000
   C     69.39000000    76.06000000    10.56000000
   C     70.53000000    75.95000000     9.55000000
   O     71.65000000    76.38000000     9.91000000
   O     70.27000000    75.54000000     8.40000000
   H     67.74000000    75.00000000    12.70000000
   H     70.51000000    75.87000000    12.37000000
   H     69.15000000    77.12000000    10.64000000
   H     68.59000000    75.53000000    10.05000000
   N     71.10000000    73.58000000    11.54000000
   C     71.47000000    72.21000000    11.25000000
   C     72.95000000    71.89000000    11.05000000
   O     73.53000000    71.26000000    11.93000000
   H     71.80000000    74.29000000    11.36000000
   H     71.00000000    71.84000000    10.35000000
   H     71.20000000    71.59000000    12.11000000
   N     73.53000000    72.42000000     9.97000000
   C     74.93000000    72.22000000     9.64000000
   C     75.28000000    70.81000000     9.19000000
   O     74.45000000    70.03000000     8.71000000
   C     75.39000000    73.37000000     8.74000000
   C     75.23000000    74.74000000     9.37000000
   O     75.64000000    75.05000000    10.51000000
   O     74.56000000    75.64000000     8.82000000
   H     72.91000000    72.81000000     9.28000000
   H     75.39000000    72.39000000    10.61000000
   H     74.75000000    73.25000000     7.86000000
   H     76.42000000    73.17000000     8.45000000
   N     76.53000000    70.41000000     9.41000000
   C     77.66000000    71.16000000     9.92000000
   C     78.68000000    71.60000000     8.87000000
   O     79.54000000    72.39000000     9.25000000
   H     76.77000000    69.45000000     9.20000000
   H     78.23000000    70.51000000    10.58000000
   H     77.27000000    71.98000000    10.51000000
   N     78.54000000    71.23000000     7.60000000
   C     79.56000000    71.48000000     6.60000000
   C     80.91000000    70.93000000     7.03000000
   O     81.91000000    71.64000000     7.04000000
   C     79.64000000    72.93000000     6.13000000
   C     78.27000000    73.57000000     5.94000000
   O     80.26000000    72.98000000     4.86000000
   H     77.74000000    70.72000000     7.27000000
   H     79.33000000    70.93000000     5.69000000
   H     80.22000000    73.51000000     6.84000000
   H     80.93000000    73.66000000     4.99000000
   H     77.58000000    72.84000000     5.52000000
   H     77.91000000    73.82000000     6.94000000
   H     78.32000000    74.48000000     5.33000000
   N     80.91000000    69.62000000     7.30000000
   C     82.00000000    68.66000000     7.37000000
   C     82.75000000    68.65000000     6.04000000
   O     82.65000000    67.69000000     5.28000000
   C     82.86000000    69.03000000     8.57000000
   C     82.10000000    69.01000000     9.89000000
   C     84.17000000    68.25000000     8.58000000
   C     81.65000000    67.66000000    10.43000000
   H     79.98000000    69.25000000     7.43000000
   H     81.59000000    67.67000000     7.56000000
   H     83.21000000    70.05000000     8.38000000
   H     81.24000000    69.68000000     9.89000000
   H     82.75000000    69.50000000    10.61000000
   H     84.78000000    68.70000000     9.37000000
   H     84.00000000    67.18000000     8.73000000
   H     84.73000000    68.48000000     7.68000000
   H     82.45000000    66.93000000    10.52000000
   H     81.45000000    67.75000000    11.50000000
   H     80.69000000    67.40000000     9.98000000
   N     83.42000000    69.75000000     5.68000000
   C     84.34000000    69.75000000     4.57000000
   C     85.53000000    70.68000000     4.78000000
   O     85.39000000    71.71000000     5.44000000
   C     83.53000000    69.99000000     3.30000000
   C     82.41000000    71.02000000     3.40000000
   O     82.95000000    68.79000000     2.83000000
   H     83.32000000    70.63000000     6.17000000
   H     84.79000000    68.76000000     4.46000000
   H     84.21000000    70.40000000     2.55000000
   H     82.88000000    68.17000000     3.56000000
   H     82.78000000    71.97000000     3.78000000
   H     82.01000000    71.24000000     2.41000000
   H     81.63000000    70.59000000     4.02000000
   N     86.67000000    70.37000000     4.15000000
   C     87.83000000    71.23000000     4.22000000
   C     87.54000000    72.58000000     3.58000000
   O     86.72000000    72.69000000     2.67000000
   C     89.06000000    70.68000000     3.50000000
   C     89.75000000    69.43000000     4.04000000
   O     88.89000000    70.38000000     2.13000000
   H     86.62000000    69.77000000     3.34000000
   H     88.19000000    71.31000000     5.25000000
   H     89.75000000    71.52000000     3.56000000
   H     88.11000000    69.83000000     2.04000000
   H     90.60000000    69.20000000     3.40000000
   H     90.09000000    69.60000000     5.06000000
   H     89.10000000    68.56000000     3.97000000
   N     88.23000000    73.63000000     4.02000000
   C     87.95000000    75.04000000     3.87000000
   C     86.45000000    75.35000000     3.83000000
   O     85.91000000    75.41000000     2.73000000
   C     88.80000000    75.63000000     2.76000000
   C     88.80000000    77.15000000     2.86000000
   C     89.40000000    77.89000000     1.67000000
   C     89.13000000    79.38000000     1.55000000
   N     89.55000000    80.14000000     2.74000000
   H     88.85000000    73.41000000     4.79000000
   H     88.20000000    75.49000000     4.83000000
   H     88.40000000    75.35000000     1.78000000
   H     89.83000000    75.31000000     2.91000000
   H     89.35000000    77.50000000     3.74000000
   H     87.77000000    77.47000000     2.99000000
   H     88.92000000    77.46000000     0.79000000
   H     90.46000000    77.65000000     1.56000000
   H     88.08000000    79.43000000     1.27000000
   H     89.77000000    79.73000000     0.73000000
   H     90.52000000    80.37000000     2.86000000
   H     89.17000000    81.07000000     2.63000000
   H     89.18000000    79.75000000     3.59000000
   N     85.76000000    75.47000000     4.96000000
   C     84.42000000    75.98000000     5.21000000
   C     83.38000000    75.08000000     5.86000000
   O     82.27000000    75.08000000     5.33000000
   C     84.43000000    77.35000000     5.88000000
   C     84.95000000    78.41000000     4.91000000
   C     84.89000000    79.79000000     5.54000000
   O     83.82000000    80.44000000     5.44000000
   O     85.96000000    80.30000000     5.93000000
   H     86.33000000    75.41000000     5.79000000
   H     83.99000000    76.09000000     4.22000000
   H     85.00000000    77.30000000     6.80000000
   H     83.47000000    77.67000000     6.29000000
   H     84.23000000    78.49000000     4.09000000
   H     85.92000000    78.17000000     4.47000000
   N     83.70000000    74.17000000     6.78000000
   C     84.87000000    74.13000000     7.64000000
   H     85.65600000    74.75300000     7.21300000
   H     84.60700000    74.50400000     8.62900000
   H     85.22600000    73.10300000     7.72200000
   H     83.01000000    73.45000000     6.94000000
  Ca     73.91000000    77.29000000    10.59000000
   O     75.47000000    78.71000000     8.96000000
   H     75.02000000    79.04000000     8.18000000
   H     76.32000000    79.16000000     8.95000000
   O     75.68000000    77.97000000    12.42000000
   H     76.08000000    78.84000000    12.51000000
   H     76.15000000    77.42000000    13.04000000
   O     73.83000000    79.95000000    11.51000000
   H     74.12000000    80.71000000    12.03000000
   H     73.54000000    80.33000000    10.69000000
   O     72.48000000    78.86000000     8.78000000
   H     71.87000000    78.44000000     8.18000000
   H     72.43000000    79.79000000     8.56000000

Ca 1.00



