%chk=loop3.apoCaM-CA-Ng.Init295.run3.water3.chk
%nprocshared=20
%mem=10GB
%nosave
#b3lyp/svp scf=(tight,noincore,xqc) Test 
#IOP(5/87=12) Density=Current Pop=(MK,readradii) iop(6/33=2) iop(6/42=6)

loop3.apoCaM-CA-Ng.Init295.run3.water3 

   0  1 
   C     56.17000000    23.04000000    51.25000000
   C     56.16000000    21.83000000    52.16000000
   O     55.81000000    20.79000000    51.60000000
   H     56.85800000    23.78600000    51.64600000
   H     56.49300000    22.74200000    50.25200000
   H     55.16700000    23.46400000    51.19700000
   N     56.59000000    21.98000000    53.42000000
   C     56.62000000    20.90000000    54.38000000
   C     56.44000000    21.46000000    55.78000000
   O     57.14000000    22.38000000    56.20000000
   C     57.89000000    20.05000000    54.27000000
   C     57.68000000    18.79000000    55.09000000
   O     57.51000000    17.68000000    54.53000000
   O     57.76000000    18.86000000    56.34000000
   H     56.84000000    22.93000000    53.64000000
   H     55.73000000    20.32000000    54.14000000
   H     58.75000000    20.49000000    54.78000000
   H     58.09000000    19.84000000    53.22000000
   N     55.54000000    20.79000000    56.50000000
   C     55.01000000    21.30000000    57.74000000
   C     55.97000000    21.18000000    58.92000000
   O     55.98000000    22.08000000    59.76000000
   C     53.63000000    20.76000000    58.09000000
   C     52.59000000    21.28000000    57.10000000
   C     51.23000000    20.74000000    57.55000000
   C     50.22000000    21.62000000    56.83000000
   N     48.84000000    21.21000000    57.13000000
   H     55.10000000    20.01000000    56.02000000
   H     54.96000000    22.38000000    57.58000000
   H     53.40000000    21.22000000    59.06000000
   H     53.55000000    19.68000000    58.13000000
   H     52.86000000    20.94000000    56.10000000
   H     52.59000000    22.37000000    57.08000000
   H     51.08000000    20.80000000    58.63000000
   H     51.02000000    19.70000000    57.29000000
   H     50.40000000    21.59000000    55.76000000
   H     50.41000000    22.62000000    57.22000000
   H     48.73000000    21.27000000    58.13000000
   H     48.20000000    21.83000000    56.66000000
   H     48.55000000    20.30000000    56.79000000
   N     56.67000000    20.05000000    59.01000000
   C     57.66000000    19.78000000    60.03000000
   C     59.10000000    20.14000000    59.71000000
   O     59.88000000    20.34000000    60.64000000
   C     57.57000000    18.34000000    60.56000000
   C     57.86000000    17.26000000    59.52000000
   O     58.97000000    17.17000000    58.95000000
   O     56.90000000    16.55000000    59.17000000
   H     56.60000000    19.40000000    58.24000000
   H     57.37000000    20.25000000    60.97000000
   H     56.58000000    18.24000000    61.01000000
   H     58.25000000    18.27000000    61.41000000
   N     59.35000000    20.23000000    58.40000000
   C     60.66000000    20.66000000    57.97000000
   C     61.63000000    19.55000000    57.61000000
   O     62.69000000    19.80000000    57.03000000
   H     58.66000000    19.92000000    57.72000000
   H     61.24000000    21.35000000    58.60000000
   H     60.50000000    21.18000000    57.03000000
   N     61.26000000    18.27000000    57.75000000
   C     62.03000000    17.20000000    57.16000000
   C     61.41000000    16.85000000    55.81000000
   O     60.25000000    16.46000000    55.79000000
   C     62.11000000    16.03000000    58.14000000
   C     62.71000000    14.76000000    57.56000000
   N     62.60000000    13.63000000    58.27000000
   O     63.32000000    14.74000000    56.50000000
   H     60.32000000    18.09000000    58.09000000
   H     63.06000000    17.55000000    57.12000000
   H     61.11000000    15.74000000    58.46000000
   H     62.73000000    16.36000000    58.97000000
   H     62.10000000    13.61000000    59.14000000
   H     62.96000000    12.73000000    58.00000000
   N     62.13000000    17.00000000    54.70000000
   C     61.69000000    16.88000000    53.32000000
   C     61.08000000    15.57000000    52.85000000
   O     61.46000000    15.22000000    51.73000000
   H     63.05000000    17.40000000    54.85000000
   H     62.48000000    17.05000000    52.60000000
   H     60.93000000    17.64000000    53.15000000
   N     60.20000000    14.91000000    53.60000000
   C     59.50000000    13.74000000    53.10000000
   C     58.07000000    13.72000000    53.63000000
   O     57.89000000    14.40000000    54.64000000
   C     60.32000000    12.53000000    53.53000000
   C     59.81000000    11.31000000    52.81000000
   C     60.09000000    11.14000000    51.44000000
   C     59.24000000    10.28000000    53.56000000
   C     59.79000000     9.92000000    50.83000000
   C     58.79000000     9.12000000    52.92000000
   C     59.10000000     8.93000000    51.56000000
   O     58.79000000     7.76000000    50.92000000
   H     59.73000000    15.43000000    54.34000000
   H     59.46000000    13.75000000    52.01000000
   H     60.35000000    12.45000000    54.62000000
   H     61.36000000    12.62000000    53.21000000
   H     60.58000000    11.96000000    50.94000000
   H     58.97000000    10.47000000    54.59000000
   H     60.07000000     9.75000000    49.80000000
   H     58.35000000     8.30000000    53.47000000
   H     58.56000000     7.04000000    51.51000000
   N     57.17000000    13.13000000    52.85000000
   C     55.73000000    13.13000000    53.01000000
   C     55.10000000    12.60000000    54.29000000
   O     55.70000000    12.55000000    55.36000000
   C     55.11000000    14.42000000    52.48000000
   C     55.44000000    14.71000000    51.02000000
   C     55.21000000    15.61000000    53.44000000
   C     54.67000000    15.88000000    50.40000000
   H     57.50000000    12.68000000    52.01000000
   H     55.44000000    12.27000000    52.40000000
   H     54.05000000    14.18000000    52.44000000
   H     55.10000000    13.87000000    50.42000000
   H     56.52000000    14.87000000    50.92000000
   H     56.26000000    15.86000000    53.52000000
   H     54.55000000    16.41000000    53.11000000
   H     54.98000000    15.32000000    54.47000000
   H     54.75000000    16.79000000    50.99000000
   H     55.11000000    15.95000000    49.41000000
   H     53.60000000    15.70000000    50.31000000
   N     53.91000000    12.02000000    54.16000000
   C     52.96000000    11.74000000    55.22000000
   C     52.08000000    10.52000000    55.03000000
   O     51.66000000     9.93000000    56.03000000
   C     52.18000000    13.02000000    55.51000000
   O     51.37000000    13.37000000    54.40000000
   H     53.39000000    12.11000000    53.30000000
   H     53.55000000    11.54000000    56.12000000
   H     52.85000000    13.82000000    55.80000000
   H     51.58000000    12.76000000    56.38000000
   H     50.79000000    14.13000000    54.51000000
   N     51.49000000    10.26000000    53.86000000
   C     50.71000000     9.09000000    53.51000000
   C     49.64000000     8.68000000    54.51000000
   O     49.70000000     7.55000000    54.99000000
   C     51.77000000     8.03000000    53.25000000
   H     51.74000000    10.86000000    53.08000000
   H     50.20000000     9.21000000    52.55000000
   H     52.39000000     8.40000000    52.43000000
   H     52.34000000     7.94000000    54.18000000
   H     51.26000000     7.12000000    52.94000000
   N     48.62000000     9.48000000    54.84000000
   C     48.38000000    10.83000000    54.37000000
   C     47.12000000    10.97000000    53.52000000
   O     46.40000000     9.97000000    53.54000000
   C     48.47000000    11.68000000    55.63000000
   H     47.94000000     9.13000000    55.50000000
   H     49.18000000    11.17000000    53.71000000
   H     49.37000000    11.48000000    56.20000000
   H     48.47000000    12.72000000    55.28000000
   H     47.57000000    11.56000000    56.23000000
   N     46.82000000    12.14000000    52.94000000
   C     47.80000000    13.06000000    52.41000000
   C     48.37000000    12.55000000    51.09000000
   O     49.38000000    13.09000000    50.64000000
   C     47.11000000    14.42000000    52.28000000
   C     48.09000000    15.55000000    52.55000000
   C     48.56000000    15.80000000    53.97000000
   O     47.84000000    16.36000000    54.83000000
   O     49.66000000    15.33000000    54.34000000
   H     45.92000000    12.14000000    52.50000000
   H     48.63000000    13.20000000    53.10000000
   H     46.34000000    14.70000000    52.99000000
   H     46.70000000    14.48000000    51.27000000
   H     47.64000000    16.48000000    52.20000000
   H     48.92000000    15.42000000    51.84000000
   N     47.73000000    11.59000000    50.42000000
   C     47.86000000    11.32000000    49.01000000
   H     48.91600000    11.24300000    48.75100000
   H     47.35800000    10.38200000    48.77100000
   H     47.40500000    12.13100000    48.44100000
   H     46.80000000    11.35000000    50.74000000
  Ca     57.61000000    16.17000000    56.74000000
   O     55.58000000    14.39000000    57.33000000
   H     55.38000000    13.77000000    56.63000000
   H     54.90000000    14.23000000    57.99000000
   O     55.03000000    17.16000000    57.02000000
   H     54.38000000    17.26000000    57.71000000
   H     54.65000000    17.61000000    56.26000000
   O     58.89000000    14.08000000    57.78000000
   H     59.42000000    14.00000000    58.57000000
   H     58.39000000    13.26000000    57.74000000

Ca 1.00



