%chk=loop2.apoCaM-CA-Ng.Init293.run3.water5.chk
%nprocshared=20
%mem=10GB
%nosave
#b3lyp/svp scf=(tight,noincore,xqc) Test 
#IOP(5/87=12) Density=Current Pop=(MK,readradii) iop(6/33=2) iop(6/42=6)

loop2.apoCaM-CA-Ng.Init293.run3.water5 

   -2  1 
   C     55.80000000    33.35000000    26.09000000
   C     55.81000000    33.06000000    24.59000000
   O     54.91000000    32.40000000    24.09000000
   H     55.17200000    34.21900000    26.28700000
   H     55.40400000    32.48700000    26.62500000
   H     56.81600000    33.55200000    26.42800000
   N     56.72000000    33.61000000    23.79000000
   C     56.80000000    33.31000000    22.37000000
   C     57.12000000    31.86000000    22.06000000
   O     56.73000000    31.32000000    21.03000000
   C     57.85000000    34.28000000    21.81000000
   C     57.76000000    35.79000000    21.89000000
   O     58.51000000    36.45000000    21.13000000
   O     56.89000000    36.42000000    22.52000000
   H     57.43000000    34.23000000    24.16000000
   H     55.87000000    33.64000000    21.91000000
   H     57.81000000    34.12000000    20.73000000
   H     58.77000000    33.95000000    22.30000000
   N     57.60000000    31.13000000    23.07000000
   C     57.94000000    29.72000000    23.08000000
   C     56.88000000    28.82000000    22.47000000
   O     57.22000000    27.76000000    21.93000000
   C     59.36000000    29.60000000    22.54000000
   H     57.74000000    31.58000000    23.97000000
   H     58.04000000    29.36000000    24.10000000
   H     59.51000000    30.40000000    21.81000000
   H     60.11000000    29.55000000    23.33000000
   H     59.47000000    28.63000000    22.07000000
   N     55.60000000    29.09000000    22.74000000
   C     54.39000000    28.36000000    22.39000000
   C     54.24000000    28.17000000    20.89000000
   O     53.82000000    27.12000000    20.41000000
   C     54.23000000    27.12000000    23.26000000
   C     54.31000000    27.46000000    24.74000000
   O     55.35000000    27.09000000    25.33000000
   O     53.36000000    28.01000000    25.33000000
   H     55.47000000    29.81000000    23.43000000
   H     53.53000000    28.96000000    22.68000000
   H     54.96000000    26.35000000    23.03000000
   H     53.25000000    26.68000000    23.06000000
   N     54.58000000    29.13000000    20.02000000
   C     54.82000000    28.87000000    18.62000000
   C     53.60000000    28.69000000    17.72000000
   O     53.79000000    28.41000000    16.54000000
   H     54.73000000    30.07000000    20.36000000
   H     55.41000000    27.96000000    18.50000000
   H     55.51000000    29.63000000    18.24000000
   N     52.37000000    28.81000000    18.21000000
   C     51.10000000    28.80000000    17.50000000
   C     50.08000000    29.85000000    17.90000000
   O     49.64000000    29.98000000    19.04000000
   C     50.56000000    27.37000000    17.54000000
   C     49.20000000    27.06000000    16.92000000
   N     48.12000000    27.68000000    17.39000000
   O     49.13000000    26.31000000    15.95000000
   H     52.30000000    28.91000000    19.22000000
   H     51.33000000    28.93000000    16.44000000
   H     50.47000000    27.05000000    18.58000000
   H     51.16000000    26.64000000    17.01000000
   H     48.18000000    28.30000000    18.19000000
   H     47.20000000    27.47000000    17.01000000
   N     49.61000000    30.66000000    16.94000000
   C     48.62000000    31.68000000    17.21000000
   C     49.12000000    32.92000000    17.93000000
   O     49.34000000    33.95000000    17.28000000
   H     50.02000000    30.53000000    16.03000000
   H     47.80000000    31.24000000    17.77000000
   H     48.10000000    31.86000000    16.27000000
   N     49.16000000    32.87000000    19.26000000
   C     49.87000000    33.78000000    20.13000000
   C     49.14000000    33.81000000    21.46000000
   O     48.46000000    32.89000000    21.91000000
   C     51.33000000    33.41000000    20.40000000
   C     52.22000000    34.28000000    21.27000000
   O     51.45000000    32.10000000    20.92000000
   H     48.76000000    32.06000000    19.71000000
   H     49.82000000    34.79000000    19.72000000
   H     51.79000000    33.41000000    19.41000000
   H     51.82000000    32.22000000    21.79000000
   H     53.23000000    33.88000000    21.16000000
   H     52.36000000    35.26000000    20.80000000
   H     51.88000000    34.40000000    22.30000000
   N     49.21000000    34.96000000    22.15000000
   C     48.86000000    35.03000000    23.56000000
   C     49.57000000    33.93000000    24.35000000
   O     50.79000000    33.84000000    24.28000000
   C     49.01000000    36.49000000    23.95000000
   C     48.24000000    36.79000000    25.23000000
   C     50.47000000    36.90000000    24.11000000
   C     48.05000000    38.29000000    25.49000000
   H     49.64000000    35.73000000    21.67000000
   H     47.80000000    34.78000000    23.58000000
   H     48.52000000    37.00000000    23.12000000
   H     48.86000000    36.33000000    25.99000000
   H     47.26000000    36.36000000    25.40000000
   H     50.96000000    36.42000000    24.96000000
   H     51.08000000    36.57000000    23.27000000
   H     50.62000000    37.95000000    24.34000000
   H     49.04000000    38.72000000    25.64000000
   H     47.53000000    38.74000000    24.65000000
   H     47.45000000    38.36000000    26.40000000
   N     48.87000000    33.12000000    25.14000000
   C     49.37000000    31.84000000    25.60000000
   C     48.67000000    30.60000000    25.06000000
   O     48.81000000    29.52000000    25.64000000
   C     49.58000000    31.91000000    27.11000000
   C     50.35000000    30.69000000    27.61000000
   O     51.29000000    30.20000000    26.96000000
   O     50.03000000    30.21000000    28.72000000
   H     47.89000000    33.33000000    25.32000000
   H     50.39000000    31.76000000    25.23000000
   H     48.65000000    32.01000000    27.66000000
   H     50.19000000    32.80000000    27.27000000
   N     47.92000000    30.71000000    23.96000000
   C     47.22000000    29.63000000    23.29000000
   C     45.70000000    29.62000000    23.42000000
   O     45.21000000    28.50000000    23.52000000
   C     47.64000000    29.65000000    21.83000000
   C     47.27000000    28.40000000    21.06000000
   C     48.09000000    27.26000000    21.04000000
   C     46.10000000    28.34000000    20.31000000
   C     47.69000000    26.13000000    20.32000000
   C     45.68000000    27.20000000    19.61000000
   C     46.50000000    26.07000000    19.59000000
   H     48.07000000    31.57000000    23.47000000
   H     47.65000000    28.68000000    23.61000000
   H     48.73000000    29.75000000    21.77000000
   H     47.31000000    30.57000000    21.35000000
   H     49.00000000    27.35000000    21.61000000
   H     45.48000000    29.23000000    20.25000000
   H     48.28000000    25.23000000    20.24000000
   H     44.74000000    27.11000000    19.08000000
   H     46.24000000    25.19000000    19.02000000
   N     44.92000000    30.70000000    23.38000000
   C     45.25000000    32.10000000    23.56000000
   C     45.31000000    32.42000000    25.05000000
   O     45.97000000    33.39000000    25.40000000
   C     44.12000000    32.88000000    22.92000000
   C     42.93000000    31.96000000    23.17000000
   C     43.49000000    30.54000000    23.17000000
   H     46.21000000    32.36000000    23.11000000
   H     43.98000000    33.86000000    23.38000000
   H     44.37000000    32.95000000    21.86000000
   H     42.47000000    32.20000000    24.12000000
   H     42.23000000    32.13000000    22.35000000
   H     43.01000000    30.03000000    24.00000000
   H     43.45000000    30.03000000    22.21000000
   N     44.66000000    31.67000000    25.94000000
   C     44.27000000    32.19000000    27.23000000
   C     45.41000000    32.68000000    28.11000000
   O     46.39000000    31.93000000    28.22000000
   C     43.48000000    31.12000000    27.98000000
   C     42.80000000    31.39000000    29.31000000
   C     42.25000000    30.09000000    29.87000000
   O     43.07000000    29.21000000    30.20000000
   O     41.02000000    29.86000000    29.91000000
   H     44.11000000    30.90000000    25.58000000
   H     43.66000000    33.09000000    27.09000000
   H     44.15000000    30.25000000    27.96000000
   H     42.72000000    30.92000000    27.23000000
   H     42.03000000    32.13000000    29.07000000
   H     43.36000000    31.94000000    30.06000000
   N     45.30000000    33.77000000    28.86000000
   C     46.51000000    34.32000000    29.44000000
   H     47.27800000    34.39800000    28.67100000
   H     46.30200000    35.31000000    29.84600000
   H     46.86100000    33.66600000    30.23800000
   H     44.44000000    34.31000000    28.83000000
  Ca     50.92000000    27.91000000    26.00000000
   O     48.96000000    26.36000000    26.68000000
   H     48.16000000    26.42000000    26.15000000
   H     48.73000000    25.75000000    27.38000000
   O     51.19000000    29.44000000    23.80000000
   H     51.04000000    29.23000000    22.88000000
   H     51.66000000    30.27000000    23.78000000
   O     50.72000000    27.50000000    28.54000000
   H     51.22000000    26.89000000    29.07000000
   H     50.70000000    28.31000000    29.05000000
   O     49.71000000    26.41000000    24.00000000
   H     49.00000000    25.76000000    24.05000000
   H     50.02000000    26.36000000    23.10000000
   O     52.19000000    25.42000000    26.04000000
   H     52.69000000    24.86000000    25.45000000
   H     51.98000000    24.85000000    26.78000000

Ca 1.00



