%chk=loop2.apoCaM-CA-Ng.Init31.run50.water4.chk
%nprocshared=20
%mem=10GB
%nosave
#b3lyp/svp scf=(tight,noincore,xqc) Test 
#IOP(5/87=12) Density=Current Pop=(MK,readradii) iop(6/33=2) iop(6/42=6)

loop2.apoCaM-CA-Ng.Init31.run50.water4 

   -2  1 
   C    103.98000000    76.96000000    24.02000000
   C    102.48000000    76.72000000    23.89000000
   O    102.13000000    75.65000000    23.41000000
   H    104.47800000    76.65300000    23.10000000
   H    104.16500000    78.02000000    24.19600000
   H    104.37000000    76.37900000    24.85500000
   N    101.48000000    77.52000000    24.28000000
   C    101.45000000    78.54000000    25.30000000
   C    101.12000000    79.91000000    24.73000000
   O    100.13000000    80.02000000    24.01000000
   C    100.50000000    78.14000000    26.43000000
   C     99.24000000    77.36000000    26.07000000
   O     98.62000000    77.57000000    25.01000000
   O     98.73000000    76.65000000    26.96000000
   H    100.59000000    77.06000000    24.19000000
   H    102.44000000    78.54000000    25.75000000
   H    100.16000000    79.09000000    26.84000000
   H    101.17000000    77.66000000    27.15000000
   N    101.88000000    80.93000000    25.16000000
   C    101.50000000    82.32000000    25.35000000
   C    100.24000000    82.58000000    26.17000000
   O    100.21000000    83.61000000    26.84000000
   C    101.35000000    82.99000000    23.99000000
   H    102.74000000    80.64000000    25.60000000
   H    102.35000000    82.78000000    25.84000000
   H    100.63000000    82.46000000    23.37000000
   H    101.05000000    84.03000000    24.15000000
   H    102.28000000    83.00000000    23.43000000
   N     99.17000000    81.80000000    26.02000000
   C     97.84000000    82.04000000    26.55000000
   C     97.08000000    80.73000000    26.65000000
   O     97.07000000    80.01000000    25.65000000
   C     97.02000000    82.97000000    25.66000000
   C     97.26000000    82.90000000    24.16000000
   O     96.79000000    83.83000000    23.48000000
   O     97.74000000    81.87000000    23.62000000
   H     99.24000000    81.22000000    25.20000000
   H     97.91000000    82.49000000    27.54000000
   H     97.33000000    83.96000000    26.00000000
   H     95.93000000    82.95000000    25.76000000
   N     96.28000000    80.37000000    27.66000000
   C     95.57000000    79.11000000    27.71000000
   C     94.20000000    79.20000000    27.06000000
   O     93.28000000    79.78000000    27.64000000
   H     96.18000000    81.00000000    28.44000000
   H     95.58000000    78.82000000    28.76000000
   H     96.26000000    78.47000000    27.16000000
   N     94.01000000    78.54000000    25.91000000
   C     92.79000000    78.76000000    25.18000000
   C     91.84000000    77.61000000    25.48000000
   O     92.28000000    76.48000000    25.68000000
   C     93.14000000    78.86000000    23.69000000
   C     94.01000000    80.06000000    23.34000000
   N     93.42000000    81.25000000    23.45000000
   O     95.21000000    79.94000000    23.11000000
   H     94.62000000    77.78000000    25.62000000
   H     92.29000000    79.67000000    25.52000000
   H     92.21000000    78.91000000    23.12000000
   H     93.68000000    78.00000000    23.32000000
   H     92.43000000    81.40000000    23.56000000
   H     94.09000000    82.01000000    23.37000000
   N     90.52000000    77.80000000    25.44000000
   C     89.48000000    76.82000000    25.69000000
   C     89.55000000    75.62000000    24.76000000
   O     89.60000000    75.87000000    23.56000000
   H     90.18000000    78.66000000    25.04000000
   H     88.50000000    77.25000000    25.49000000
   H     89.56000000    76.57000000    26.75000000
   N     89.33000000    74.38000000    25.20000000
   C     89.33000000    73.89000000    26.56000000
   C     89.76000000    72.43000000    26.69000000
   O     90.17000000    72.07000000    27.78000000
   C     87.91000000    73.99000000    27.13000000
   C     87.76000000    73.61000000    28.60000000
   O     87.50000000    75.34000000    27.19000000
   H     89.25000000    73.72000000    24.44000000
   H     90.03000000    74.55000000    27.07000000
   H     87.20000000    73.43000000    26.53000000
   H     86.75000000    75.28000000    27.79000000
   H     88.58000000    74.18000000    29.05000000
   H     86.77000000    73.79000000    29.01000000
   H     87.94000000    72.55000000    28.76000000
   N     89.76000000    71.67000000    25.59000000
   C     90.17000000    70.30000000    25.35000000
   C     89.32000000    69.34000000    26.18000000
   O     89.59000000    69.15000000    27.37000000
   C     91.67000000    70.07000000    25.45000000
   C     92.56000000    71.17000000    24.89000000
   C     91.99000000    68.75000000    24.73000000
   C     92.35000000    71.56000000    23.43000000
   H     89.33000000    72.09000000    24.78000000
   H     89.88000000    70.09000000    24.32000000
   H     91.84000000    69.91000000    26.51000000
   H     93.58000000    70.87000000    25.11000000
   H     92.58000000    72.09000000    25.48000000
   H     93.05000000    68.57000000    24.89000000
   H     91.36000000    67.95000000    25.12000000
   H     91.79000000    68.81000000    23.66000000
   H     91.36000000    72.00000000    23.34000000
   H     93.06000000    72.29000000    23.05000000
   H     92.40000000    70.74000000    22.71000000
   N     88.38000000    68.60000000    25.60000000
   C     87.95000000    68.57000000    24.22000000
   C     88.86000000    67.74000000    23.32000000
   O     89.39000000    68.28000000    22.36000000
   C     86.45000000    68.27000000    24.26000000
   C     86.12000000    66.90000000    24.84000000
   O     86.80000000    66.38000000    25.75000000
   O     84.91000000    66.58000000    24.74000000
   H     88.01000000    67.85000000    26.16000000
   H     87.88000000    69.60000000    23.87000000
   H     86.08000000    68.47000000    23.26000000
   H     85.99000000    69.06000000    24.86000000
   N     89.09000000    66.46000000    23.60000000
   C     89.98000000    65.57000000    22.88000000
   C     89.21000000    64.62000000    21.97000000
   O     88.10000000    64.25000000    22.34000000
   C     90.74000000    64.69000000    23.87000000
   C     89.95000000    63.85000000    24.84000000
   C     89.44000000    64.37000000    26.04000000
   C     89.90000000    62.47000000    24.58000000
   C     88.72000000    63.53000000    26.90000000
   C     89.32000000    61.60000000    25.51000000
   C     88.73000000    62.15000000    26.66000000
   H     88.49000000    66.13000000    24.34000000
   H     90.63000000    66.09000000    22.18000000
   H     91.31000000    65.43000000    24.44000000
   H     91.44000000    64.10000000    23.29000000
   H     89.54000000    65.42000000    26.25000000
   H     90.44000000    62.08000000    23.74000000
   H     88.29000000    63.96000000    27.79000000
   H     89.30000000    60.53000000    25.34000000
   H     88.34000000    61.47000000    27.40000000
   N     89.84000000    64.09000000    20.93000000
   C     91.17000000    64.45000000    20.47000000
   C     91.22000000    65.70000000    19.59000000
   O     90.30000000    66.52000000    19.63000000
   C     91.63000000    63.23000000    19.67000000
   C     90.85000000    62.10000000    20.34000000
   C     89.49000000    62.80000000    20.38000000
   H     91.88000000    64.68000000    21.27000000
   H     91.42000000    63.35000000    18.61000000
   H     92.71000000    63.08000000    19.65000000
   H     90.94000000    61.26000000    19.65000000
   H     91.17000000    61.92000000    21.36000000
   H     89.02000000    62.91000000    19.40000000
   H     88.77000000    62.32000000    21.05000000
   N     92.27000000    65.87000000    18.80000000
   C     92.52000000    67.13000000    18.13000000
   C     94.01000000    67.44000000    18.10000000
   O     94.60000000    67.65000000    17.05000000
   C     91.93000000    67.10000000    16.72000000
   C     91.89000000    68.47000000    16.04000000
   C     91.27000000    68.43000000    14.65000000
   O     90.13000000    68.92000000    14.50000000
   O     91.90000000    67.91000000    13.70000000
   H     93.00000000    65.17000000    18.73000000
   H     92.08000000    67.95000000    18.71000000
   H     90.88000000    66.87000000    16.86000000
   H     92.41000000    66.35000000    16.09000000
   H     92.93000000    68.80000000    16.00000000
   H     91.31000000    69.15000000    16.66000000
   N     94.72000000    67.72000000    19.20000000
   C     94.43000000    67.39000000    20.58000000
   H     93.39000000    67.07400000    20.66700000
   H     95.08300000    66.58000000    20.90600000
   H     94.59700000    68.26600000    21.20600000
   H     95.69000000    67.87000000    18.97000000
  Ca     97.79000000    79.38000000    23.16000000
   O     96.35000000    77.06000000    22.90000000
   H     96.86000000    76.25000000    22.83000000
   H     95.51000000    76.85000000    22.51000000
   O     99.31000000    80.54000000    21.25000000
   H     99.46000000    81.48000000    21.15000000
   H    100.17000000    80.14000000    21.09000000
   O     96.47000000    79.75000000    20.59000000
   H     95.88000000    79.10000000    20.21000000
   H     97.14000000    79.89000000    19.92000000
   O     99.26000000    77.32000000    21.96000000
   H     99.90000000    77.61000000    21.31000000
   H     99.27000000    76.36000000    21.89000000

Ca 1.00



