%chk=loop4.holoCaM-CaMKII.run18.water1.chk
%nprocshared=20
%mem=10GB
%nosave
#b3lyp/svp scf=(tight,noincore,xqc) Test 
#IOP(5/87=12) Density=Current Pop=(MK,readradii) iop(6/33=2) iop(6/42=6)

loop4.holoCaM-CaMKII.run18.water1 

   -3  1 
   C     91.39800000    68.51000000    30.23000000
   C     91.07800000    68.70000000    31.71000000
   O     90.89800000    69.83000000    32.16000000
   H     92.43800000    68.20300000    30.12000000
   H     90.74700000    67.74200000    29.81300000
   H     91.24000000    69.44900000    29.70000000
   N     91.02800000    67.59000000    32.45000000
   C     90.50800000    67.60000000    33.81000000
   C     91.49800000    68.15000000    34.83000000
   O     92.59800000    67.63000000    34.99000000
   C     89.89800000    66.23000000    34.09000000
   C     89.08800000    66.14000000    35.37000000
   O     88.79800000    67.20000000    35.98000000
   O     89.00800000    65.02000000    35.92000000
   H     91.14800000    66.70000000    32.00000000
   H     89.68800000    68.32000000    33.80000000
   H     90.74800000    65.54000000    34.08000000
   H     89.24800000    65.93000000    33.27000000
   N     91.04800000    69.19000000    35.54000000
   C     91.82800000    70.00000000    36.45000000
   C     91.61800000    69.51000000    37.88000000
   O     92.48800000    69.76000000    38.71000000
   C     91.57800000    71.50000000    36.30000000
   C     91.63800000    71.97000000    34.85000000
   C     92.38800000    72.37000000    37.25000000
   C     93.03800000    71.89000000    34.23000000
   H     90.16800000    69.61000000    35.29000000
   H     92.88800000    69.80000000    36.30000000
   H     90.52800000    71.64000000    36.56000000
   H     91.34800000    73.02000000    34.77000000
   H     90.99800000    71.37000000    34.22000000
   H     93.43800000    72.11000000    37.13000000
   H     92.25800000    73.40000000    36.92000000
   H     91.90800000    72.18000000    38.21000000
   H     92.92800000    72.13000000    33.18000000
   H     93.81800000    72.54000000    34.62000000
   H     93.38800000    70.85000000    34.26000000
   N     90.52800000    68.85000000    38.28000000
   C     89.95800000    68.72000000    39.61000000
   C     89.70800000    67.26000000    39.96000000
   O     89.44800000    66.90000000    41.11000000
   C     88.86800000    69.74000000    39.91000000
   C     87.76800000    69.53000000    38.88000000
   O     87.13800000    68.45000000    38.83000000
   O     87.44800000    70.39000000    38.04000000
   H     89.97800000    68.65000000    37.46000000
   H     90.72800000    69.05000000    40.30000000
   H     89.29800000    70.72000000    39.69000000
   H     88.45800000    69.55000000    40.90000000
   N     89.74800000    66.35000000    38.99000000
   C     89.71800000    64.92000000    39.25000000
   C     88.42800000    64.16000000    39.03000000
   O     88.43800000    62.94000000    39.22000000
   H     89.93800000    66.59000000    38.02000000
   H     90.07800000    64.71000000    40.26000000
   H     90.32800000    64.42000000    38.50000000
   N     87.29800000    64.85000000    38.87000000
   C     85.99800000    64.24000000    38.65000000
   C     85.84800000    63.38000000    37.40000000
   O     84.93800000    62.55000000    37.42000000
   C     84.85800000    65.26000000    38.75000000
   C     84.91800000    66.43000000    37.77000000
   O     84.20800000    67.44000000    37.95000000
   O     85.70800000    66.40000000    36.80000000
   H     87.38800000    65.85000000    38.78000000
   H     85.87800000    63.52000000    39.45000000
   H     84.74800000    65.55000000    39.79000000
   H     83.89800000    64.76000000    38.61000000
   N     86.69800000    63.47000000    36.38000000
   C     86.44800000    62.80000000    35.12000000
   C     85.37800000    63.49000000    34.28000000
   O     84.68800000    62.80000000    33.54000000
   H     87.46800000    64.13000000    36.44000000
   H     86.06800000    61.78000000    35.23000000
   H     87.38800000    62.73000000    34.57000000
   N     85.20800000    64.80000000    34.46000000
   C     84.41800000    65.69000000    33.63000000
   C     85.20800000    66.90000000    33.15000000
   O     86.00800000    67.53000000    33.85000000
   C     83.07800000    66.05000000    34.27000000
   C     82.14800000    64.86000000    34.51000000
   C     80.65800000    65.17000000    34.58000000
   N     80.21800000    65.99000000    35.53000000
   O     79.83800000    64.96000000    33.69000000
   H     85.78800000    65.16000000    35.21000000
   H     84.10800000    65.15000000    32.74000000
   H     82.56800000    66.72000000    33.58000000
   H     83.17800000    66.76000000    35.09000000
   H     82.37800000    64.28000000    35.40000000
   H     82.28800000    64.28000000    33.60000000
   H     80.80800000    66.23000000    36.32000000
   H     79.23800000    66.24000000    35.47000000
   N     84.68800000    67.45000000    32.05000000
   C     85.05800000    68.74000000    31.50000000
   C     83.86800000    69.68000000    31.52000000
   O     83.01800000    69.65000000    30.63000000
   C     85.64800000    68.55000000    30.11000000
   C     85.94800000    69.78000000    29.26000000
   C     86.97800000    67.81000000    30.20000000
   H     83.85800000    67.00000000    31.70000000
   H     85.89800000    69.12000000    32.09000000
   H     85.04800000    67.90000000    29.47000000
   H     86.87800000    70.24000000    29.58000000
   H     86.10800000    69.45000000    28.23000000
   H     85.09800000    70.46000000    29.33000000
   H     87.59800000    68.35000000    30.91000000
   H     86.77800000    66.79000000    30.53000000
   H     87.49800000    67.63000000    29.26000000
   N     83.92800000    70.59000000    32.50000000
   C     83.25800000    71.87000000    32.57000000
   C     83.67800000    72.76000000    31.41000000
   O     84.79800000    72.74000000    30.90000000
   C     83.59800000    72.55000000    33.90000000
   C     82.67800000    73.70000000    34.27000000
   N     81.41800000    73.41000000    34.61000000
   O     83.04800000    74.87000000    34.22000000
   H     84.68800000    70.52000000    33.16000000
   H     82.18800000    71.69000000    32.55000000
   H     84.61800000    72.93000000    33.82000000
   H     83.58800000    71.78000000    34.67000000
   H     80.96800000    72.51000000    34.61000000
   H     80.85800000    74.24000000    34.79000000
   N     82.81800000    73.71000000    31.03000000
   C     83.10800000    74.58000000    29.91000000
   C     84.29800000    75.51000000    30.14000000
   O     84.96800000    75.70000000    29.13000000
   C     81.88800000    75.39000000    29.47000000
   C     82.09800000    76.24000000    28.24000000
   C     82.29800000    75.65000000    26.99000000
   C     82.30800000    77.62000000    28.39000000
   C     82.71800000    76.45000000    25.92000000
   C     82.53800000    78.43000000    27.27000000
   C     82.77800000    77.86000000    26.01000000
   O     83.14800000    78.62000000    24.94000000
   H     81.89800000    73.80000000    31.43000000
   H     83.37800000    74.00000000    29.03000000
   H     81.62800000    76.03000000    30.32000000
   H     81.07800000    74.67000000    29.42000000
   H     82.25800000    74.58000000    26.89000000
   H     82.10800000    78.14000000    29.31000000
   H     82.99800000    75.96000000    25.01000000
   H     82.64800000    79.50000000    27.41000000
   H     83.39800000    79.52000000    25.19000000
   N     84.68800000    75.87000000    31.37000000
   C     85.99800000    76.44000000    31.61000000
   C     87.19800000    75.52000000    31.52000000
   O     88.32800000    75.93000000    31.25000000
   C     85.89800000    76.91000000    33.06000000
   C     87.03800000    77.83000000    33.53000000
   C     86.68800000    78.30000000    34.93000000
   O     86.55800000    79.53000000    35.11000000
   O     86.49800000    77.42000000    35.80000000
   H     84.08800000    75.67000000    32.16000000
   H     86.00800000    77.35000000    31.01000000
   H     85.85800000    76.06000000    33.74000000
   H     84.97800000    77.48000000    33.14000000
   H     87.14800000    78.67000000    32.85000000
   H     87.87800000    77.14000000    33.58000000
   N     87.03800000    74.20000000    31.61000000
   C     88.10800000    73.26000000    31.34000000
   C     88.20800000    73.01000000    29.84000000
   O     89.25800000    72.57000000    29.39000000
   C     87.77800000    71.97000000    32.08000000
   C     87.94800000    72.11000000    33.59000000
   C     87.50800000    70.81000000    34.24000000
   O     88.37800000    70.14000000    34.83000000
   O     86.30800000    70.48000000    34.36000000
   H     86.15800000    73.82000000    31.94000000
   H     89.02800000    73.68000000    31.76000000
   H     88.53800000    71.23000000    31.82000000
   H     86.81800000    71.53000000    31.83000000
   H     87.24800000    72.93000000    33.76000000
   H     88.98800000    72.38000000    33.78000000
   N     87.15800000    73.31000000    29.06000000
   C     87.07800000    73.05000000    27.64000000
   H     86.73000000    73.94600000    27.12600000
   H     88.06400000    72.77600000    27.26400000
   H     86.37900000    72.23300000    27.45800000
   H     86.32800000    73.66000000    29.51000000
  Ca     86.72000000    68.65000000    36.19000000
   O     84.54000000    69.95000000    36.80000000
   H     84.36000000    70.87000000    37.03000000
   H     84.09000000    69.45000000    37.48000000

Ca 1.00



