%chk=loop1.holoCaM-CaMKII.run29.water2.chk
%nprocshared=20
%mem=10GB
%nosave
#b3lyp/svp scf=(tight,noincore,xqc) Test 
#IOP(5/87=12) Density=Current Pop=(MK,readradii) iop(6/33=2) iop(6/42=6)

loop1.holoCaM-CaMKII.run29.water2 

   0  1 
   C     87.38000000    45.40000000    15.96000000
   C     88.12000000    44.82000000    14.76000000
   O     87.82000000    43.71000000    14.30000000
   H     86.38100000    44.96700000    16.01500000
   H     87.92700000    45.16600000    16.87300000
   H     87.30000000    46.48200000    15.85100000
   N     89.07000000    45.57000000    14.21000000
   C     90.13000000    45.08000000    13.35000000
   C     91.23000000    44.32000000    14.08000000
   O     91.90000000    44.91000000    14.93000000
   C     90.68000000    46.24000000    12.52000000
   C     91.87000000    45.85000000    11.66000000
   O     92.57000000    46.81000000    11.27000000
   O     92.08000000    44.67000000    11.31000000
   H     89.20000000    46.48000000    14.65000000
   H     89.65000000    44.36000000    12.69000000
   H     90.91000000    47.02000000    13.25000000
   H     89.96000000    46.61000000    11.79000000
   N     91.44000000    43.05000000    13.75000000
   C     92.35000000    42.10000000    14.37000000
   C     93.61000000    41.92000000    13.54000000
   O     94.54000000    41.21000000    13.91000000
   C     91.55000000    40.81000000    14.53000000
   C     90.43000000    40.71000000    15.56000000
   C     90.72000000    40.52000000    17.05000000
   C     90.00000000    41.57000000    17.89000000
   N     88.59000000    41.17000000    17.95000000
   H     90.87000000    42.73000000    12.98000000
   H     92.60000000    42.52000000    15.35000000
   H     92.24000000    40.07000000    14.95000000
   H     91.13000000    40.53000000    13.57000000
   H     89.97000000    39.77000000    15.27000000
   H     89.71000000    41.50000000    15.37000000
   H     91.80000000    40.65000000    17.20000000
   H     90.52000000    39.51000000    17.41000000
   H     90.12000000    42.57000000    17.46000000
   H     90.56000000    41.47000000    18.82000000
   H     88.48000000    40.28000000    18.40000000
   H     88.18000000    41.76000000    18.66000000
   H     88.22000000    41.25000000    17.01000000
   N     93.75000000    42.64000000    12.43000000
   C     94.93000000    42.67000000    11.59000000
   C     95.82000000    43.89000000    11.76000000
   O     97.05000000    43.86000000    11.63000000
   C     94.68000000    42.34000000    10.12000000
   C     93.69000000    41.20000000     9.96000000
   O     92.57000000    41.49000000     9.47000000
   O     93.91000000    40.05000000    10.40000000
   H     93.06000000    43.32000000    12.13000000
   H     95.51000000    41.80000000    11.89000000
   H     95.61000000    42.08000000     9.61000000
   H     94.22000000    43.23000000     9.68000000
   N     95.13000000    45.03000000    11.71000000
   C     95.79000000    46.30000000    11.48000000
   C     95.98000000    46.50000000     9.98000000
   O     97.01000000    47.05000000     9.58000000
   H     94.13000000    44.96000000    11.73000000
   H     96.72000000    46.37000000    12.04000000
   H     95.09000000    47.07000000    11.81000000
   N     95.02000000    46.09000000     9.14000000
   C     94.84000000    46.61000000     7.80000000
   C     94.03000000    47.89000000     7.85000000
   O     93.98000000    48.60000000     6.84000000
   C     94.18000000    45.54000000     6.93000000
   C     92.99000000    44.86000000     7.58000000
   O     92.78000000    43.63000000     7.51000000
   O     92.07000000    45.54000000     8.09000000
   H     94.22000000    45.76000000     9.65000000
   H     95.82000000    46.78000000     7.34000000
   H     94.94000000    44.79000000     6.69000000
   H     93.82000000    46.02000000     6.02000000
   N     93.44000000    48.21000000     9.01000000
   C     92.66000000    49.43000000     9.05000000
   C     91.24000000    49.37000000     8.50000000
   O     90.65000000    50.42000000     8.28000000
   H     93.39000000    47.53000000     9.75000000
   H     93.19000000    50.30000000     8.66000000
   H     92.53000000    49.50000000    10.13000000
   N     90.73000000    48.14000000     8.41000000
   C     89.41000000    47.85000000     7.87000000
   C     88.79000000    46.75000000     8.73000000
   O     89.43000000    45.76000000     9.08000000
   C     89.44000000    47.33000000     6.44000000
   C     89.56000000    48.48000000     5.44000000
   O     90.38000000    46.29000000     6.24000000
   H     91.32000000    47.40000000     8.74000000
   H     88.79000000    48.73000000     8.01000000
   H     88.48000000    46.87000000     6.20000000
   H     90.97000000    46.20000000     6.99000000
   H     88.98000000    49.36000000     5.71000000
   H     90.58000000    48.85000000     5.36000000
   H     89.18000000    48.01000000     4.54000000
   N     87.51000000    46.88000000     9.08000000
   C     86.77000000    45.94000000     9.90000000
   C     85.82000000    45.17000000     9.00000000
   O     85.03000000    45.83000000     8.33000000
   C     86.02000000    46.59000000    11.06000000
   C     86.94000000    47.36000000    12.01000000
   C     85.29000000    45.58000000    11.94000000
   C     86.30000000    48.48000000    12.83000000
   H     87.09000000    47.73000000     8.73000000
   H     87.45000000    45.18000000    10.27000000
   H     85.26000000    47.28000000    10.69000000
   H     87.72000000    47.88000000    11.46000000
   H     87.47000000    46.67000000    12.66000000
   H     84.79000000    46.01000000    12.80000000
   H     84.58000000    45.12000000    11.26000000
   H     85.98000000    44.81000000    12.30000000
   H     86.03000000    49.31000000    12.19000000
   H     85.41000000    48.16000000    13.38000000
   H     87.05000000    48.85000000    13.54000000
   N     85.84000000    43.83000000     8.99000000
   C     85.01000000    42.96000000     8.18000000
   C     83.71000000    42.59000000     8.88000000
   O     83.57000000    42.82000000    10.08000000
   C     85.74000000    41.75000000     7.61000000
   C     86.97000000    42.02000000     6.76000000
   O     86.06000000    40.94000000     8.72000000
   H     86.57000000    43.36000000     9.49000000
   H     84.65000000    43.50000000     7.31000000
   H     85.06000000    41.23000000     6.93000000
   H     86.55000000    40.17000000     8.43000000
   H     87.84000000    42.43000000     7.28000000
   H     87.25000000    41.07000000     6.29000000
   H     86.79000000    42.70000000     5.93000000
   N     82.82000000    41.99000000     8.08000000
   C     81.61000000    41.35000000     8.58000000
   C     81.88000000    40.19000000     9.52000000
   O     81.21000000    40.19000000    10.56000000
   C     80.73000000    40.91000000     7.42000000
   C     80.22000000    42.06000000     6.55000000
   O     81.56000000    40.03000000     6.70000000
   H     83.04000000    41.91000000     7.10000000
   H     81.04000000    42.13000000     9.08000000
   H     79.87000000    40.30000000     7.71000000
   H     80.88000000    39.71000000     6.10000000
   H     81.00000000    42.64000000     6.07000000
   H     79.60000000    41.71000000     5.73000000
   H     79.64000000    42.77000000     7.14000000
   N     82.83000000    39.29000000     9.28000000
   C     83.24000000    38.22000000    10.16000000
   C     84.05000000    38.69000000    11.36000000
   O     83.86000000    38.15000000    12.45000000
   C     84.13000000    37.20000000     9.45000000
   C     83.33000000    36.20000000     8.62000000
   C     84.17000000    35.06000000     8.04000000
   C     83.29000000    34.20000000     7.14000000
   N     82.06000000    33.79000000     7.83000000
   H     83.38000000    39.25000000     8.43000000
   H     82.42000000    37.65000000    10.61000000
   H     84.75000000    36.60000000    10.11000000
   H     84.85000000    37.70000000     8.80000000
   H     82.67000000    36.66000000     7.88000000
   H     82.63000000    35.74000000     9.33000000
   H     84.49000000    34.43000000     8.87000000
   H     84.99000000    35.56000000     7.52000000
   H     83.84000000    33.33000000     6.78000000
   H     83.03000000    34.74000000     6.23000000
   H     81.53000000    33.22000000     7.19000000
   H     82.31000000    33.20000000     8.61000000
   H     81.53000000    34.53000000     8.27000000
   N     84.86000000    39.74000000    11.22000000
   C     85.46000000    40.42000000    12.35000000
   C     84.43000000    41.07000000    13.26000000
   O     84.53000000    40.91000000    14.48000000
   C     86.45000000    41.51000000    11.96000000
   C     87.85000000    41.06000000    11.55000000
   C     88.85000000    42.16000000    11.22000000
   O     88.51000000    43.09000000    10.47000000
   O     90.09000000    42.02000000    11.38000000
   H     85.08000000    40.04000000    10.28000000
   H     85.97000000    39.63000000    12.91000000
   H     86.61000000    42.04000000    12.90000000
   H     86.10000000    42.20000000    11.19000000
   H     87.81000000    40.35000000    10.72000000
   H     88.19000000    40.45000000    12.39000000
   N     83.41000000    41.71000000    12.70000000
   C     82.31000000    42.23000000    13.50000000
   H     81.42500000    41.61300000    13.34500000
   H     82.58600000    42.21000000    14.55400000
   H     82.09400000    43.25500000    13.19900000
   H     83.42000000    41.77000000    11.69000000
  Ca     90.86000000    43.47000000     9.16000000
   O     89.89000000    43.73000000     6.62000000
   H     90.00000000    42.94000000     6.09000000
   H     89.95000000    44.45000000     5.99000000
   O     90.01000000    41.01000000     7.99000000
   H     90.78000000    40.47000000     7.80000000
   H     89.31000000    40.64000000     7.45000000

Ca 1.00



