%chk=loop2.holoCaM.run47.water0.chk
%nprocshared=20
%mem=10GB
%nosave
#b3lyp/svp scf=(tight,noincore,xqc) Test 
#IOP(5/87=12) Density=Current Pop=(MK,readradii) iop(6/33=2) iop(6/42=6)

loop2.holoCaM.run47.water0 

   -2  1 
   C     63.55000000    59.54000000    16.80000000
   C     62.44000000    60.39000000    17.40000000
   O     62.72000000    61.49000000    17.87000000
   H     64.44200000    59.61600000    17.42200000
   H     63.22800000    58.50000000    16.75400000
   H     63.77700000    59.89500000    15.79500000
   N     61.18000000    59.96000000    17.29000000
   C     60.02000000    60.60000000    17.86000000
   C     59.80000000    60.35000000    19.35000000
   O     59.45000000    59.22000000    19.69000000
   C     58.87000000    59.98000000    17.08000000
   C     57.57000000    60.62000000    17.55000000
   O     56.59000000    59.88000000    17.31000000
   O     57.50000000    61.74000000    18.10000000
   H     60.97000000    59.20000000    16.65000000
   H     60.06000000    61.68000000    17.70000000
   H     58.88000000    58.89000000    17.13000000
   H     58.99000000    60.12000000    16.00000000
   N     60.00000000    61.35000000    20.21000000
   C     59.97000000    61.08000000    21.64000000
   C     58.56000000    60.97000000    22.20000000
   O     58.50000000    60.45000000    23.32000000
   C     60.84000000    62.19000000    22.22000000
   H     60.27000000    62.27000000    19.90000000
   H     60.56000000    60.17000000    21.78000000
   H     61.81000000    62.22000000    21.72000000
   H     60.35000000    63.13000000    21.99000000
   H     60.89000000    62.14000000    23.31000000
   N     57.51000000    61.25000000    21.42000000
   C     56.17000000    61.30000000    21.95000000
   C     55.27000000    60.14000000    21.56000000
   O     54.28000000    59.88000000    22.23000000
   C     55.42000000    62.57000000    21.53000000
   C     56.34000000    63.78000000    21.51000000
   O     56.51000000    64.49000000    20.49000000
   O     56.96000000    64.16000000    22.53000000
   H     57.76000000    61.60000000    20.51000000
   H     56.33000000    61.34000000    23.03000000
   H     54.54000000    62.81000000    22.12000000
   H     55.19000000    62.51000000    20.47000000
   N     55.67000000    59.39000000    20.53000000
   C     54.95000000    58.28000000    19.94000000
   C     53.87000000    58.77000000    18.99000000
   O     53.04000000    57.96000000    18.59000000
   H     56.54000000    59.59000000    20.06000000
   H     54.37000000    57.77000000    20.71000000
   H     55.73000000    57.64000000    19.53000000
   N     53.84000000    60.05000000    18.61000000
   C     52.68000000    60.75000000    18.10000000
   C     52.73000000    60.91000000    16.58000000
   O     51.69000000    61.22000000    16.02000000
   C     52.56000000    62.11000000    18.76000000
   C     53.41000000    63.22000000    18.15000000
   N     52.87000000    64.31000000    17.60000000
   O     54.64000000    63.22000000    18.10000000
   H     54.64000000    60.65000000    18.77000000
   H     51.80000000    60.17000000    18.36000000
   H     52.86000000    61.95000000    19.80000000
   H     51.50000000    62.35000000    18.69000000
   H     51.87000000    64.43000000    17.61000000
   H     53.49000000    65.02000000    17.24000000
   N     53.89000000    60.76000000    15.93000000
   C     53.94000000    60.71000000    14.48000000
   C     54.45000000    61.96000000    13.78000000
   O     55.07000000    61.85000000    12.73000000
   H     54.73000000    60.68000000    16.47000000
   H     52.98000000    60.40000000    14.06000000
   H     54.68000000    59.92000000    14.40000000
   N     54.28000000    63.17000000    14.32000000
   C     54.93000000    64.31000000    13.70000000
   C     56.28000000    64.54000000    14.35000000
   O     56.46000000    64.50000000    15.57000000
   C     54.05000000    65.56000000    13.75000000
   C     53.52000000    65.96000000    12.38000000
   O     52.97000000    65.38000000    14.64000000
   H     53.83000000    63.33000000    15.21000000
   H     55.08000000    64.17000000    12.63000000
   H     54.63000000    66.38000000    14.20000000
   H     52.51000000    64.58000000    14.40000000
   H     53.11000000    65.12000000    11.82000000
   H     52.63000000    66.58000000    12.48000000
   H     54.30000000    66.52000000    11.86000000
   N     57.24000000    64.88000000    13.49000000
   C     58.59000000    65.21000000    13.90000000
   C     58.76000000    66.69000000    14.21000000
   O     58.50000000    67.58000000    13.40000000
   C     59.52000000    64.69000000    12.81000000
   C     59.60000000    63.19000000    12.55000000
   C     60.96000000    65.19000000    12.86000000
   C     59.91000000    62.42000000    13.83000000
   H     57.04000000    64.91000000    12.50000000
   H     58.84000000    64.63000000    14.79000000
   H     59.13000000    65.16000000    11.91000000
   H     60.31000000    63.06000000    11.74000000
   H     58.61000000    62.86000000    12.24000000
   H     60.99000000    66.28000000    12.89000000
   H     61.33000000    64.84000000    13.83000000
   H     61.56000000    64.84000000    12.02000000
   H     59.84000000    61.33000000    13.72000000
   H     60.89000000    62.68000000    14.22000000
   H     59.13000000    62.61000000    14.57000000
   N     59.28000000    66.93000000    15.41000000
   C     59.64000000    68.22000000    15.96000000
   C     61.10000000    68.60000000    15.75000000
   O     61.99000000    67.78000000    15.54000000
   C     59.34000000    68.39000000    17.45000000
   C     57.92000000    67.91000000    17.72000000
   O     57.73000000    66.72000000    18.07000000
   O     56.92000000    68.63000000    17.52000000
   H     59.56000000    66.15000000    15.99000000
   H     58.98000000    68.95000000    15.50000000
   H     59.46000000    69.46000000    17.64000000
   H     60.09000000    67.88000000    18.04000000
   N     61.47000000    69.88000000    15.84000000
   C     62.82000000    70.35000000    15.61000000
   C     63.98000000    69.69000000    16.35000000
   O     64.86000000    69.14000000    15.68000000
   C     62.99000000    71.85000000    15.84000000
   C     64.28000000    72.51000000    15.42000000
   C     64.74000000    72.44000000    14.10000000
   C     64.99000000    73.29000000    16.33000000
   C     65.90000000    73.09000000    13.68000000
   C     66.19000000    73.93000000    15.98000000
   C     66.60000000    73.83000000    14.65000000
   H     60.74000000    70.57000000    15.99000000
   H     62.94000000    70.17000000    14.54000000
   H     62.72000000    72.03000000    16.88000000
   H     62.19000000    72.44000000    15.40000000
   H     64.32000000    71.71000000    13.42000000
   H     64.57000000    73.49000000    17.31000000
   H     66.37000000    72.89000000    12.72000000
   H     66.81000000    74.48000000    16.68000000
   H     67.48000000    74.36000000    14.34000000
   N     63.95000000    69.46000000    17.66000000
   C     64.92000000    68.65000000    18.37000000
   C     64.97000000    67.21000000    17.87000000
   O     66.05000000    66.65000000    17.71000000
   C     64.62000000    68.77000000    19.86000000
   C     63.18000000    69.26000000    19.79000000
   C     63.06000000    70.16000000    18.56000000
   H     65.91000000    69.05000000    18.13000000
   H     64.75000000    67.83000000    20.40000000
   H     65.19000000    69.58000000    20.33000000
   H     62.47000000    68.43000000    19.81000000
   H     63.06000000    69.85000000    20.70000000
   H     62.04000000    70.32000000    18.21000000
   H     63.54000000    71.08000000    18.89000000
   N     63.85000000    66.66000000    17.40000000
   C     63.74000000    65.35000000    16.79000000
   C     64.41000000    65.32000000    15.42000000
   O     65.01000000    64.30000000    15.09000000
   C     62.30000000    64.85000000    16.71000000
   C     61.73000000    64.80000000    18.12000000
   C     60.26000000    64.44000000    18.06000000
   O     59.56000000    64.51000000    17.03000000
   O     59.63000000    63.94000000    19.02000000
   H     62.99000000    67.19000000    17.39000000
   H     64.32000000    64.68000000    17.43000000
   H     62.31000000    63.80000000    16.40000000
   H     61.63000000    65.43000000    16.07000000
   H     61.73000000    65.79000000    18.57000000
   H     62.40000000    64.19000000    18.72000000
   N     64.20000000    66.38000000    14.63000000
   C     64.83000000    66.53000000    13.34000000
   H     65.84100000    66.12600000    13.38100000
   H     64.25400000    65.99000000    12.58900000
   H     64.87200000    67.58700000    13.07600000
   H     63.82000000    67.15000000    15.16000000
  Ca     57.22000000    64.23000000    18.07000000

Ca 1.00



