%chk=loop2.holoCaM.run57.water2.chk
%nprocshared=20
%mem=10GB
%nosave
#b3lyp/svp scf=(tight,noincore,xqc) Test 
#IOP(5/87=12) Density=Current Pop=(MK,readradii) iop(6/33=2) iop(6/42=6)

loop2.holoCaM.run57.water2 

   -2  1 
   C     47.99000000    63.54000000   -15.03000000
   C     46.52000000    63.41000000   -14.67000000
   O     46.11000000    63.90000000   -13.63000000
   H     48.58700000    62.94700000   -14.33700000
   H     48.14900000    63.17900000   -16.04600000
   H     48.29000000    64.58600000   -14.96400000
   N     45.71000000    62.61000000   -15.37000000
   C     44.29000000    62.45000000   -15.13000000
   C     43.92000000    61.67000000   -13.87000000
   O     44.15000000    60.47000000   -13.87000000
   C     43.59000000    61.97000000   -16.40000000
   C     42.09000000    61.76000000   -16.32000000
   O     41.43000000    61.24000000   -17.25000000
   O     41.48000000    62.15000000   -15.30000000
   H     46.09000000    62.13000000   -16.18000000
   H     43.96000000    63.47000000   -14.98000000
   H     44.05000000    61.09000000   -16.84000000
   H     43.73000000    62.70000000   -17.20000000
   N     43.32000000    62.39000000   -12.92000000
   C     42.84000000    61.85000000   -11.67000000
   C     41.66000000    60.88000000   -11.68000000
   O     41.42000000    60.26000000   -10.64000000
   C     42.35000000    63.08000000   -10.90000000
   H     43.00000000    63.33000000   -13.12000000
   H     43.70000000    61.41000000   -11.17000000
   H     42.14000000    62.71000000    -9.90000000
   H     43.16000000    63.80000000   -10.76000000
   H     41.48000000    63.60000000   -11.30000000
   N     40.90000000    60.79000000   -12.77000000
   C     39.69000000    59.99000000   -12.80000000
   C     39.55000000    59.00000000   -13.95000000
   O     38.92000000    57.95000000   -13.86000000
   C     38.46000000    60.87000000   -12.69000000
   C     38.38000000    61.89000000   -13.81000000
   O     37.96000000    61.54000000   -14.94000000
   O     38.72000000    63.06000000   -13.55000000
   H     41.13000000    61.32000000   -13.59000000
   H     39.64000000    59.31000000   -11.95000000
   H     38.56000000    61.45000000   -11.77000000
   H     37.52000000    60.34000000   -12.58000000
   N     40.40000000    59.19000000   -14.97000000
   C     40.51000000    58.35000000   -16.14000000
   C     39.38000000    58.39000000   -17.16000000
   O     39.43000000    57.69000000   -18.17000000
   H     40.99000000    60.01000000   -14.95000000
   H     40.67000000    57.33000000   -15.77000000
   H     41.42000000    58.65000000   -16.66000000
   N     38.41000000    59.29000000   -17.01000000
   C     37.51000000    59.55000000   -18.12000000
   C     38.18000000    60.11000000   -19.37000000
   O     37.49000000    60.24000000   -20.38000000
   C     36.25000000    60.28000000   -17.67000000
   C     35.43000000    59.69000000   -16.53000000
   N     35.43000000    60.14000000   -15.27000000
   O     34.68000000    58.75000000   -16.79000000
   H     38.22000000    59.81000000   -16.16000000
   H     37.15000000    58.58000000   -18.47000000
   H     35.65000000    60.49000000   -18.55000000
   H     36.52000000    61.28000000   -17.34000000
   H     36.07000000    60.90000000   -15.12000000
   H     34.87000000    59.65000000   -14.58000000
   N     39.44000000    60.54000000   -19.41000000
   C     40.12000000    60.99000000   -20.61000000
   C     40.07000000    62.49000000   -20.86000000
   O     40.27000000    62.83000000   -22.02000000
   H     39.94000000    60.41000000   -18.54000000
   H     39.74000000    60.38000000   -21.43000000
   H     41.16000000    60.71000000   -20.50000000
   N     39.89000000    63.39000000   -19.88000000
   C     39.79000000    64.82000000   -20.07000000
   C     40.51000000    65.55000000   -18.95000000
   O     40.76000000    64.97000000   -17.89000000
   C     38.37000000    65.35000000   -20.29000000
   C     37.70000000    64.62000000   -21.45000000
   O     37.48000000    65.24000000   -19.21000000
   H     39.60000000    63.05000000   -18.98000000
   H     40.29000000    65.07000000   -21.01000000
   H     38.44000000    66.38000000   -20.62000000
   H     36.74000000    64.75000000   -19.57000000
   H     37.66000000    63.55000000   -21.27000000
   H     36.68000000    64.91000000   -21.69000000
   H     38.33000000    64.73000000   -22.34000000
   N     40.83000000    66.81000000   -19.23000000
   C     41.55000000    67.77000000   -18.41000000
   C     40.68000000    68.78000000   -17.68000000
   O     40.01000000    69.56000000   -18.35000000
   C     42.67000000    68.43000000   -19.21000000
   C     43.70000000    67.52000000   -19.88000000
   C     43.33000000    69.54000000   -18.39000000
   C     44.51000000    66.76000000   -18.83000000
   H     40.75000000    67.15000000   -20.18000000
   H     42.02000000    67.15000000   -17.65000000
   H     42.23000000    68.88000000   -20.10000000
   H     44.45000000    68.10000000   -20.41000000
   H     43.21000000    66.90000000   -20.63000000
   H     44.30000000    69.78000000   -18.83000000
   H     42.72000000    70.43000000   -18.32000000
   H     43.54000000    69.16000000   -17.39000000
   H     45.20000000    66.11000000   -19.36000000
   H     45.24000000    67.40000000   -18.32000000
   H     43.88000000    66.13000000   -18.21000000
   N     40.72000000    68.75000000   -16.34000000
   C     40.06000000    69.65000000   -15.42000000
   C     41.13000000    70.62000000   -14.94000000
   O     42.32000000    70.38000000   -15.12000000
   C     39.50000000    68.76000000   -14.31000000
   C     38.75000000    67.47000000   -14.62000000
   O     39.10000000    66.37000000   -14.14000000
   O     37.70000000    67.51000000   -15.28000000
   H     41.30000000    68.02000000   -15.96000000
   H     39.31000000    70.21000000   -15.99000000
   H     38.96000000    69.41000000   -13.62000000
   H     40.36000000    68.39000000   -13.76000000
   N     40.63000000    71.73000000   -14.38000000
   C     41.54000000    72.82000000   -14.08000000
   C     42.76000000    72.50000000   -13.22000000
   O     43.87000000    72.81000000   -13.64000000
   C     40.76000000    74.08000000   -13.71000000
   C     41.70000000    75.26000000   -13.62000000
   C     41.96000000    75.96000000   -14.80000000
   C     42.40000000    75.52000000   -12.43000000
   C     42.82000000    77.06000000   -14.73000000
   C     43.20000000    76.66000000   -12.38000000
   C     43.43000000    77.43000000   -13.53000000
   H     39.64000000    71.92000000   -14.40000000
   H     42.06000000    73.02000000   -15.02000000
   H     40.20000000    73.99000000   -12.78000000
   H     40.08000000    74.16000000   -14.56000000
   H     41.44000000    75.76000000   -15.73000000
   H     42.29000000    74.94000000   -11.52000000
   H     42.89000000    77.60000000   -15.66000000
   H     43.66000000    76.82000000   -11.42000000
   H     44.07000000    78.30000000   -13.45000000
   N     42.67000000    71.74000000   -12.13000000
   C     43.85000000    71.29000000   -11.41000000
   C     44.73000000    70.31000000   -12.16000000
   O     45.91000000    70.15000000   -11.85000000
   C     43.39000000    70.65000000   -10.10000000
   C     41.97000000    71.20000000    -9.95000000
   C     41.47000000    71.48000000   -11.36000000
   H     44.48000000    72.17000000   -11.24000000
   H     43.29000000    69.57000000   -10.20000000
   H     44.04000000    70.83000000    -9.25000000
   H     41.33000000    70.49000000    -9.42000000
   H     42.08000000    72.14000000    -9.42000000
   H     40.91000000    70.60000000   -11.68000000
   H     40.79000000    72.33000000   -11.38000000
   N     44.24000000    69.59000000   -13.17000000
   C     45.11000000    68.79000000   -14.01000000
   C     45.68000000    69.54000000   -15.20000000
   O     46.70000000    69.06000000   -15.70000000
   C     44.29000000    67.59000000   -14.49000000
   C     43.60000000    66.74000000   -13.43000000
   C     42.62000000    65.75000000   -14.05000000
   O     42.15000000    66.02000000   -15.17000000
   O     42.11000000    64.82000000   -13.38000000
   H     43.33000000    69.74000000   -13.59000000
   H     45.97000000    68.35000000   -13.51000000
   H     44.88000000    66.86000000   -15.04000000
   H     43.64000000    68.05000000   -15.23000000
   H     42.98000000    67.30000000   -12.73000000
   H     44.40000000    66.25000000   -12.88000000
   N     45.10000000    70.71000000   -15.50000000
   C     45.62000000    71.57000000   -16.55000000
   H     46.63200000    71.25800000   -16.80600000
   H     44.98300000    71.49400000   -17.43100000
   H     45.63600000    72.60200000   -16.20000000
   H     44.27000000    71.03000000   -15.04000000
  Ca     40.21000000    64.37000000   -15.27300000
   O     38.00000000    65.06000000   -16.54300000
   H     37.83000000    65.09000000   -17.48300000
   H     37.76000000    65.93000000   -16.22300000
   O     39.21000000    62.50000000   -17.08300000
   H     38.62000000    62.09000000   -16.44300000
   H     39.90000000    61.85000000   -17.22300000

Ca 1.00



