%chk=loop2.holoCaM.run36.water1.chk
%nprocshared=20
%mem=10GB
%nosave
#b3lyp/svp scf=(tight,noincore,xqc) Test 
#IOP(5/87=12) Density=Current Pop=(MK,readradii) iop(6/33=2) iop(6/42=6)

loop2.holoCaM.run36.water1 

   -2  1 
   C     70.11000000    69.39000000   112.80500000
   C     70.74000000    69.15000000   114.17500000
   O     71.94000000    68.89000000   114.28500000
   H     69.21700000    70.00500000   112.91900000
   H     70.82400000    69.90300000   112.16100000
   H     69.83700000    68.43400000   112.35700000
   N     69.97000000    69.17000000   115.25500000
   C     70.41000000    68.95000000   116.62500000
   C     71.03000000    67.57000000   116.77500000
   O     70.39000000    66.53000000   116.79500000
   C     69.16000000    69.16000000   117.46500000
   C     69.34000000    68.94000000   118.95500000
   O     70.50000000    68.80000000   119.39500000
   O     68.27000000    68.88000000   119.59500000
   H     68.99000000    69.32000000   115.09500000
   H     71.20000000    69.67000000   116.85500000
   H     68.39000000    68.45000000   117.15500000
   H     68.79000000    70.17000000   117.26500000
   N     72.35000000    67.49000000   116.99500000
   C     73.13000000    66.28000000   116.86500000
   C     73.23000000    65.48000000   118.14500000
   O     73.38000000    64.26000000   118.12500000
   C     74.44000000    66.56000000   116.13500000
   H     72.92000000    68.32000000   117.10500000
   H     72.57000000    65.67000000   116.15500000
   H     74.92000000    65.68000000   115.71500000
   H     74.19000000    67.14000000   115.24500000
   H     75.22000000    66.92000000   116.81500000
   N     73.03000000    66.06000000   119.33500000
   C     72.70000000    65.44000000   120.60500000
   C     71.22000000    65.11000000   120.79500000
   O     70.97000000    64.00000000   121.25500000
   C     73.30000000    66.14000000   121.81500000
   C     72.94000000    67.62000000   121.86500000
   O     71.73000000    67.92000000   121.96500000
   O     73.77000000    68.51000000   121.61500000
   H     73.14000000    67.06000000   119.27500000
   H     73.17000000    64.46000000   120.56500000
   H     74.37000000    65.93000000   121.91500000
   H     72.96000000    65.63000000   122.71500000
   N     70.29000000    65.95000000   120.32500000
   C     68.87000000    65.71000000   120.42500000
   C     68.10000000    66.46000000   121.49500000
   O     66.90000000    66.26000000   121.66500000
   H     70.53000000    66.88000000   120.01500000
   H     68.76000000    64.62000000   120.50500000
   H     68.38000000    65.95000000   119.47500000
   N     68.73000000    67.33000000   122.27500000
   C     68.18000000    68.06000000   123.40500000
   C     67.15000000    69.16000000   123.23500000
   O     66.67000000    69.72000000   124.21500000
   C     69.38000000    68.45000000   124.25500000
   C     70.20000000    69.57000000   123.62500000
   N     71.19000000    70.11000000   124.34500000
   O     69.94000000    70.07000000   122.53500000
   H     69.69000000    67.60000000   122.08500000
   H     67.67000000    67.38000000   124.09500000
   H     70.02000000    67.62000000   124.54500000
   H     69.04000000    68.78000000   125.23500000
   H     71.49000000    69.54000000   125.11500000
   H     71.71000000    70.85000000   123.89500000
   N     66.84000000    69.65000000   122.02500000
   C     65.78000000    70.61000000   121.76500000
   C     66.23000000    72.03000000   121.43500000
   O     65.43000000    72.96000000   121.46500000
   H     67.24000000    69.07000000   121.30500000
   H     65.02000000    70.64000000   122.54500000
   H     65.24000000    70.26000000   120.89500000
   N     67.54000000    72.17000000   121.22500000
   C     68.20000000    73.43000000   120.94500000
   C     69.41000000    73.26000000   120.04500000
   O     70.09000000    72.24000000   120.09500000
   C     68.59000000    74.18000000   122.22500000
   C     67.44000000    74.69000000   123.09500000
   O     69.36000000    73.28000000   122.98500000
   H     68.03000000    71.31000000   121.02500000
   H     67.51000000    74.12000000   120.45500000
   H     69.17000000    75.04000000   121.88500000
   H     69.03000000    72.44000000   122.67500000
   H     67.77000000    75.47000000   123.77500000
   H     66.77000000    75.30000000   122.49500000
   H     66.68000000    74.02000000   123.50500000
   N     69.64000000    74.26000000   119.19500000
   C     70.73000000    74.38000000   118.23500000
   C     71.92000000    75.10000000   118.86500000
   O     71.78000000    76.24000000   119.29500000
   C     70.30000000    75.10000000   116.95500000
   C     69.06000000    74.42000000   116.38500000
   C     71.33000000    75.12000000   115.83500000
   C     68.50000000    75.04000000   115.09500000
   H     68.98000000    75.02000000   119.28500000
   H     71.04000000    73.42000000   117.82500000
   H     70.05000000    76.15000000   117.10500000
   H     68.26000000    74.52000000   117.12500000
   H     69.29000000    73.37000000   116.25500000
   H     72.29000000    75.45000000   116.24500000
   H     71.34000000    74.17000000   115.31500000
   H     71.08000000    75.83000000   115.04500000
   H     67.61000000    74.45000000   114.86500000
   H     68.27000000    76.08000000   115.29500000
   H     69.17000000    74.93000000   114.24500000
   N     73.04000000    74.38000000   118.95500000
   C     74.38000000    74.80000000   119.30500000
   C     75.08000000    75.37000000   118.08500000
   O     74.77000000    74.91000000   116.98500000
   C     75.18000000    73.62000000   119.84500000
   C     74.42000000    72.94000000   120.97500000
   O     74.10000000    71.73000000   120.94500000
   O     74.14000000    73.56000000   122.02500000
   H     72.85000000    73.41000000   118.75500000
   H     74.29000000    75.61000000   120.03500000
   H     76.15000000    74.00000000   120.18500000
   H     75.38000000    72.90000000   119.05500000
   N     76.08000000    76.25000000   118.21500000
   C     76.84000000    76.81000000   117.11500000
   C     77.41000000    75.81000000   116.11500000
   O     77.27000000    76.13000000   114.94500000
   C     77.95000000    77.69000000   117.68500000
   C     78.50000000    78.65000000   116.65500000
   C     77.64000000    79.63000000   116.13500000
   C     79.83000000    78.63000000   116.22500000
   C     78.08000000    80.53000000   115.15500000
   C     80.27000000    79.51000000   115.23500000
   C     79.41000000    80.47000000   114.70500000
   H     76.21000000    76.68000000   119.12500000
   H     76.13000000    77.43000000   116.57500000
   H     78.69000000    77.06000000   118.18500000
   H     77.56000000    78.36000000   118.44500000
   H     76.63000000    79.62000000   116.50500000
   H     80.45000000    77.88000000   116.69500000
   H     77.46000000    81.33000000   114.78500000
   H     81.33000000    79.58000000   115.00500000
   H     79.86000000    81.18000000   114.02500000
   N     77.92000000    74.62000000   116.45500000
   C     78.26000000    73.59000000   115.48500000
   C     77.08000000    72.97000000   114.76500000
   O     77.29000000    72.33000000   113.73500000
   C     79.04000000    72.52000000   116.23500000
   C     78.59000000    72.69000000   117.68500000
   C     78.18000000    74.16000000   117.80500000
   H     78.82000000    73.92000000   114.61500000
   H     78.88000000    71.48000000   115.92500000
   H     80.12000000    72.63000000   116.12500000
   H     77.76000000    72.01000000   117.82500000
   H     79.47000000    72.48000000   118.29500000
   H     77.32000000    74.29000000   118.46500000
   H     79.00000000    74.78000000   118.16500000
   N     75.88000000    73.02000000   115.35500000
   C     74.67000000    72.50000000   114.76500000
   C     74.04000000    73.65000000   113.99500000
   O     73.43000000    73.40000000   112.95500000
   C     73.74000000    71.96000000   115.85500000
   C     74.32000000    70.90000000   116.78500000
   C     73.45000000    70.57000000   117.99500000
   O     72.74000000    71.44000000   118.52500000
   O     73.68000000    69.48000000   118.55500000
   H     75.77000000    73.56000000   116.19500000
   H     74.85000000    71.72000000   114.02500000
   H     72.85000000    71.61000000   115.33500000
   H     73.32000000    72.75000000   116.48500000
   H     75.31000000    71.18000000   117.12500000
   H     74.30000000    70.00000000   116.17500000
   N     74.14000000    74.94000000   114.33500000
   C     73.78000000    76.05000000   113.47500000
   H     72.90000000    76.55100000   113.87900000
   H     74.60900000    76.75600000   113.42600000
   H     73.55900000    75.67800000   112.47500000
   H     74.39000000    75.15000000   115.29500000
  Ca     71.98000000    70.31000000   120.76500000
   O     71.92000000    72.28000000   122.60500000
   H     71.20000000    72.82000000   122.93500000
   H     72.66000000    72.89000000   122.52500000

Ca 1.00



