%chk=loop4.apoCaM-CA-Ng.Init295.run68.water2.chk
%nprocshared=20
%mem=10GB
%nosave
#b3lyp/svp scf=(tight,noincore,xqc) Test 
#IOP(5/87=12) Density=Current Pop=(MK,readradii) iop(6/33=2) iop(6/42=6)

loop4.apoCaM-CA-Ng.Init295.run68.water2 

   -3  1 
   C      0.52000000   -25.79000000    29.66000000
   C      1.32000000   -27.09000000    29.59000000
   O      2.45000000   -27.15000000    30.07000000
   H     -0.43100000   -25.97600000    30.15800000
   H      1.08400000   -25.04500000    30.22100000
   H      0.33500000   -25.42200000    28.65100000
   N      0.80000000   -28.12000000    28.91000000
   C      1.55000000   -29.35000000    28.80000000
   C      1.64000000   -30.20000000    30.05000000
   O      2.67000000   -30.80000000    30.36000000
   C      2.84000000   -29.10000000    28.02000000
   C      2.67000000   -28.28000000    26.75000000
   O      3.28000000   -27.21000000    26.57000000
   O      1.77000000   -28.53000000    25.92000000
   H     -0.07000000   -28.11000000    28.40000000
   H      1.00000000   -29.90000000    28.03000000
   H      3.20000000   -30.08000000    27.71000000
   H      3.69000000   -28.65000000    28.53000000
   N      0.47000000   -30.24000000    30.71000000
   C      0.39000000   -30.89000000    31.99000000
   C     -0.04000000   -32.33000000    31.75000000
   O     -1.17000000   -32.65000000    31.41000000
   C     -0.53000000   -30.15000000    32.97000000
   C     -0.26000000   -28.66000000    33.17000000
   C     -0.66000000   -30.90000000    34.29000000
   C      0.98000000   -28.34000000    34.00000000
   H     -0.37000000   -29.78000000    30.38000000
   H      1.35000000   -30.88000000    32.51000000
   H     -1.50000000   -30.17000000    32.47000000
   H     -1.13000000   -28.21000000    33.66000000
   H      0.03000000   -28.17000000    32.25000000
   H     -1.08000000   -31.88000000    34.05000000
   H      0.31000000   -31.02000000    34.78000000
   H     -1.29000000   -30.40000000    35.02000000
   H      1.03000000   -28.76000000    35.00000000
   H      1.89000000   -28.76000000    33.58000000
   H      1.11000000   -27.26000000    33.95000000
   N      0.80000000   -33.33000000    32.02000000
   C      2.16000000   -33.47000000    32.51000000
   C      3.08000000   -34.36000000    31.68000000
   O      4.27000000   -34.09000000    31.59000000
   C      2.14000000   -33.95000000    33.96000000
   C      1.17000000   -35.06000000    34.33000000
   O      0.77000000   -35.04000000    35.51000000
   O      0.63000000   -35.78000000    33.46000000
   H      0.36000000   -34.23000000    31.90000000
   H      2.54000000   -32.45000000    32.55000000
   H      1.93000000   -33.10000000    34.61000000
   H      3.14000000   -34.34000000    34.16000000
   N      2.53000000   -35.36000000    30.99000000
   C      3.27000000   -36.23000000    30.11000000
   C      4.52000000   -36.91000000    30.65000000
   O      4.55000000   -37.36000000    31.80000000
   H      1.53000000   -35.55000000    30.97000000
   H      3.56000000   -35.62000000    29.25000000
   H      2.58000000   -36.96000000    29.69000000
   N      5.50000000   -36.98000000    29.75000000
   C      6.89000000   -37.30000000    29.96000000
   C      7.79000000   -36.32000000    30.70000000
   O      8.80000000   -36.71000000    31.28000000
   C      7.57000000   -37.51000000    28.61000000
   C      7.53000000   -36.24000000    27.78000000
   O      6.54000000   -36.02000000    27.05000000
   O      8.43000000   -35.39000000    27.90000000
   H      5.36000000   -36.66000000    28.80000000
   H      6.98000000   -38.28000000    30.44000000
   H      7.14000000   -38.35000000    28.06000000
   H      8.59000000   -37.77000000    28.87000000
   N      7.39000000   -35.04000000    30.71000000
   C      7.95000000   -33.92000000    31.43000000
   C      9.42000000   -33.66000000    31.14000000
   O     10.06000000   -33.13000000    32.04000000
   H      6.54000000   -34.91000000    30.19000000
   H      7.90000000   -34.25000000    32.47000000
   H      7.33000000   -33.07000000    31.15000000
   N      9.91000000   -33.94000000    29.93000000
   C     11.20000000   -33.55000000    29.38000000
   C     11.42000000   -32.05000000    29.43000000
   O     12.50000000   -31.47000000    29.55000000
   C     12.36000000   -34.31000000    30.01000000
   C     12.15000000   -35.82000000    30.11000000
   C     12.19000000   -36.45000000    28.72000000
   N     11.14000000   -36.51000000    27.91000000
   O     13.26000000   -36.85000000    28.27000000
   H      9.26000000   -34.47000000    29.37000000
   H     11.15000000   -33.88000000    28.34000000
   H     12.49000000   -33.91000000    31.01000000
   H     13.20000000   -34.10000000    29.34000000
   H     11.25000000   -35.98000000    30.71000000
   H     13.02000000   -36.23000000    30.63000000
   H     10.20000000   -36.26000000    28.20000000
   H     11.34000000   -36.95000000    27.02000000
   N     10.35000000   -31.26000000    29.27000000
   C     10.37000000   -29.82000000    29.37000000
   C     11.12000000   -29.13000000    28.24000000
   O     10.99000000   -29.70000000    27.16000000
   C      8.98000000   -29.19000000    29.34000000
   C      7.97000000   -29.74000000    30.35000000
   C      9.03000000   -27.68000000    29.55000000
   H      9.45000000   -31.70000000    29.10000000
   H     10.81000000   -29.62000000    30.34000000
   H      8.47000000   -29.35000000    28.39000000
   H      8.25000000   -29.51000000    31.39000000
   H      6.99000000   -29.27000000    30.36000000
   H      7.90000000   -30.83000000    30.37000000
   H      8.05000000   -27.24000000    29.78000000
   H      9.68000000   -27.47000000    30.40000000
   H      9.44000000   -27.19000000    28.66000000
   N     11.93000000   -28.08000000    28.43000000
   C     12.24000000   -27.18000000    27.34000000
   C     11.57000000   -25.84000000    27.61000000
   O     11.42000000   -25.47000000    28.77000000
   C     13.76000000   -27.06000000    27.24000000
   C     14.37000000   -25.81000000    26.62000000
   N     14.22000000   -25.56000000    25.32000000
   O     14.97000000   -25.00000000    27.32000000
   H     12.02000000   -27.66000000    29.34000000
   H     11.85000000   -27.58000000    26.41000000
   H     14.09000000   -27.92000000    26.65000000
   H     14.16000000   -27.19000000    28.24000000
   H     13.69000000   -26.18000000    24.71000000
   H     14.50000000   -24.68000000    24.93000000
   N     11.29000000   -25.14000000    26.51000000
   C     10.43000000   -23.98000000    26.39000000
   C      9.59000000   -23.98000000    25.12000000
   O     10.09000000   -24.25000000    24.03000000
   C     11.23000000   -22.69000000    26.36000000
   C     11.41000000   -22.00000000    27.69000000
   C     12.51000000   -22.37000000    28.47000000
   C     10.52000000   -21.02000000    28.15000000
   C     12.82000000   -21.73000000    29.68000000
   C     10.76000000   -20.36000000    29.36000000
   C     11.97000000   -20.66000000    30.02000000
   O     12.31000000   -19.86000000    31.07000000
   H     11.46000000   -25.67000000    25.67000000
   H      9.76000000   -23.95000000    27.25000000
   H     10.72000000   -22.02000000    25.66000000
   H     12.18000000   -22.87000000    25.85000000
   H     13.05000000   -23.21000000    28.07000000
   H      9.68000000   -20.76000000    27.53000000
   H     13.70000000   -22.03000000    30.23000000
   H     10.11000000   -19.55000000    29.67000000
   H     11.81000000   -19.05000000    31.19000000
   N      8.32000000   -23.61000000    25.29000000
   C      7.44000000   -23.42000000    24.16000000
   C      6.85000000   -22.02000000    24.06000000
   O      7.16000000   -21.32000000    23.10000000
   C      6.50000000   -24.61000000    24.01000000
   C      5.77000000   -24.51000000    22.68000000
   C      4.60000000   -25.47000000    22.55000000
   O      4.04000000   -26.02000000    23.52000000
   O      4.23000000   -25.67000000    21.38000000
   H      7.98000000   -23.49000000    26.23000000
   H      8.05000000   -23.43000000    23.26000000
   H      5.75000000   -24.63000000    24.81000000
   H      7.01000000   -25.57000000    24.11000000
   H      6.54000000   -24.61000000    21.91000000
   H      5.30000000   -23.52000000    22.69000000
   N      6.06000000   -21.45000000    24.97000000
   C      5.28000000   -21.90000000    26.10000000
   C      6.02000000   -21.70000000    27.42000000
   O      6.94000000   -20.89000000    27.44000000
   C      3.92000000   -21.21000000    26.07000000
   C      3.11000000   -21.52000000    24.81000000
   C      2.94000000   -23.00000000    24.51000000
   O      2.84000000   -23.80000000    25.46000000
   O      2.64000000   -23.40000000    23.36000000
   H      6.09000000   -20.45000000    24.84000000
   H      5.11000000   -22.97000000    26.05000000
   H      4.02000000   -20.13000000    26.07000000
   H      3.35000000   -21.54000000    26.94000000
   H      3.61000000   -21.01000000    23.98000000
   H      2.11000000   -21.09000000    24.86000000
   N      5.61000000   -22.46000000    28.45000000
   C      6.11000000   -22.40000000    29.80000000
   H      6.98800000   -21.75500000    29.83300000
   H      5.33900000   -21.99700000    30.45600000
   H      6.38300000   -23.40200000    30.13200000
   H      4.95000000   -23.20000000    28.24000000
  Ca      1.82000000   -25.99800000    24.68000000
   O     -0.44800000   -27.40800000    24.36000000
   H     -1.21800000   -27.01800000    23.97000000
   H     -0.61800000   -28.34800000    24.35000000
   O      1.58000000   -26.66800000    22.15000000
   H      2.30000000   -26.17800000    21.77000000
   H      1.20000000   -27.14800000    21.41000000

Ca 1.00



