%chk=loop3.apoCaM-CA-Ng.Init293.run87.water5.chk
%nprocshared=20
%mem=10GB
%nosave
#b3lyp/svp scf=(tight,noincore,xqc) Test 
#IOP(5/87=12) Density=Current Pop=(MK,readradii) iop(6/33=2) iop(6/42=6)

loop3.apoCaM-CA-Ng.Init293.run87.water5 

   0  1 
   C     77.61000000    78.94000000    16.33000000
   C     78.98000000    78.28000000    16.38000000
   O     79.90000000    78.90000000    15.84000000
   H     76.89800000    78.34200000    16.90000000
   H     77.67200000    79.93900000    16.76100000
   H     77.27700000    79.01000000    15.29400000
   N     79.14000000    77.10000000    16.97000000
   C     80.39000000    76.39000000    17.10000000
   C     80.68000000    75.65000000    18.40000000
   O     79.71000000    75.29000000    19.06000000
   C     80.65000000    75.48000000    15.90000000
   C     82.10000000    75.02000000    15.80000000
   O     83.07000000    75.68000000    16.21000000
   O     82.33000000    73.84000000    15.45000000
   H     78.35000000    76.69000000    17.46000000
   H     81.26000000    77.05000000    17.10000000
   H     80.44000000    76.09000000    15.01000000
   H     79.91000000    74.68000000    15.93000000
   N     81.91000000    75.48000000    18.89000000
   C     82.18000000    74.57000000    19.99000000
   C     81.73000000    73.14000000    19.72000000
   O     80.95000000    72.87000000    18.82000000
   C     81.58000000    75.15000000    21.27000000
   C     82.32000000    74.66000000    22.52000000
   C     81.50000000    74.81000000    23.80000000
   C     80.22000000    74.01000000    24.02000000
   N     80.59000000    72.59000000    23.91000000
   H     82.69000000    75.67000000    18.28000000
   H     83.26000000    74.54000000    20.11000000
   H     80.50000000    75.01000000    21.38000000
   H     81.60000000    76.24000000    21.26000000
   H     83.21000000    75.29000000    22.58000000
   H     82.55000000    73.61000000    22.36000000
   H     81.20000000    75.86000000    23.85000000
   H     82.19000000    74.85000000    24.65000000
   H     79.51000000    74.23000000    23.23000000
   H     79.84000000    74.30000000    25.00000000
   H     79.79000000    72.09000000    24.26000000
   H     80.82000000    72.28000000    22.98000000
   H     81.36000000    72.47000000    24.56000000
   N     82.19000000    72.13000000    20.46000000
   C     81.74000000    70.75000000    20.33000000
   C     80.35000000    70.45000000    20.87000000
   O     79.84000000    71.23000000    21.67000000
   C     82.80000000    69.85000000    20.94000000
   C     83.18000000    70.10000000    22.39000000
   O     82.71000000    71.11000000    22.96000000
   O     84.04000000    69.45000000    23.02000000
   H     82.74000000    72.33000000    21.28000000
   H     81.73000000    70.57000000    19.25000000
   H     83.66000000    69.81000000    20.27000000
   H     82.31000000    68.87000000    20.87000000
   N     79.71000000    69.38000000    20.41000000
   C     78.55000000    68.70000000    20.94000000
   C     77.87000000    67.70000000    20.02000000
   O     78.02000000    67.70000000    18.80000000
   H     80.26000000    68.91000000    19.70000000
   H     77.78000000    69.42000000    21.21000000
   H     78.82000000    68.09000000    21.80000000
   N     77.15000000    66.79000000    20.69000000
   C     76.37000000    65.70000000    20.13000000
   C     74.95000000    65.70000000    20.69000000
   O     74.70000000    66.12000000    21.81000000
   C     77.14000000    64.40000000    20.29000000
   C     78.57000000    64.47000000    19.77000000
   N     78.82000000    64.12000000    18.51000000
   O     79.47000000    64.92000000    20.47000000
   H     77.08000000    67.00000000    21.67000000
   H     76.26000000    65.92000000    19.07000000
   H     76.67000000    63.54000000    19.81000000
   H     77.27000000    64.14000000    21.35000000
   H     78.10000000    63.65000000    17.98000000
   H     79.76000000    63.99000000    18.16000000
   N     74.03000000    65.35000000    19.79000000
   C     72.62000000    65.14000000    20.06000000
   C     72.04000000    66.17000000    21.02000000
   O     72.12000000    67.35000000    20.72000000
   H     74.27000000    65.08000000    18.85000000
   H     72.38000000    64.15000000    20.46000000
   H     72.05000000    65.22000000    19.14000000
   N     71.45000000    65.66000000    22.11000000
   C     70.56000000    66.37000000    23.01000000
   C     71.21000000    67.31000000    24.02000000
   O     70.54000000    67.77000000    24.94000000
   C     69.39000000    67.06000000    22.31000000
   C     68.48000000    66.24000000    21.43000000
   C     68.52000000    66.37000000    20.03000000
   C     67.58000000    65.40000000    22.09000000
   C     67.57000000    65.65000000    19.29000000
   C     66.68000000    64.65000000    21.32000000
   C     66.71000000    64.73000000    19.91000000
   O     65.88000000    64.01000000    19.11000000
   H     71.48000000    64.65000000    22.18000000
   H     70.08000000    65.63000000    23.65000000
   H     69.77000000    67.98000000    21.88000000
   H     68.75000000    67.45000000    23.10000000
   H     69.12000000    67.03000000    19.43000000
   H     67.50000000    65.35000000    23.17000000
   H     67.58000000    65.64000000    18.21000000
   H     66.07000000    63.89000000    21.78000000
   H     65.14000000    63.69000000    19.64000000
   N     72.51000000    67.56000000    23.86000000
   C     73.44000000    68.37000000    24.61000000
   C     73.57000000    67.92000000    26.06000000
   O     74.70000000    67.69000000    26.47000000
   C     73.07000000    69.85000000    24.49000000
   C     72.95000000    70.32000000    23.04000000
   C     74.05000000    70.79000000    25.18000000
   C     74.22000000    70.32000000    22.19000000
   H     72.98000000    66.94000000    23.21000000
   H     74.44000000    68.10000000    24.27000000
   H     72.10000000    69.92000000    24.97000000
   H     72.56000000    71.34000000    22.96000000
   H     72.21000000    69.71000000    22.52000000
   H     74.03000000    70.66000000    26.27000000
   H     75.09000000    70.75000000    24.86000000
   H     73.65000000    71.79000000    25.02000000
   H     74.94000000    70.97000000    22.67000000
   H     74.56000000    69.28000000    22.17000000
   H     74.00000000    70.68000000    21.18000000
   N     72.54000000    67.95000000    26.92000000
   C     72.57000000    67.67000000    28.34000000
   C     73.14000000    68.79000000    29.20000000
   O     73.84000000    68.50000000    30.17000000
   C     71.19000000    67.34000000    28.90000000
   O     70.19000000    68.17000000    28.35000000
   H     71.60000000    68.04000000    26.56000000
   H     73.27000000    66.83000000    28.43000000
   H     71.24000000    67.35000000    29.99000000
   H     70.92000000    66.34000000    28.56000000
   H     69.40000000    67.63000000    28.32000000
   N     72.83000000    70.05000000    28.90000000
   C     73.20000000    71.30000000    29.54000000
   C     74.68000000    71.48000000    29.82000000
   O     75.08000000    71.88000000    30.91000000
   C     72.36000000    71.53000000    30.80000000
   H     72.26000000    70.11000000    28.06000000
   H     72.90000000    72.18000000    28.97000000
   H     72.44000000    72.53000000    31.22000000
   H     71.31000000    71.46000000    30.49000000
   H     72.68000000    70.71000000    31.44000000
   N     75.50000000    71.11000000    28.83000000
   C     76.92000000    71.15000000    29.08000000
   C     77.61000000    72.33000000    28.41000000
   O     77.32000000    72.70000000    27.27000000
   C     77.47000000    69.82000000    28.60000000
   H     75.08000000    70.75000000    27.98000000
   H     77.23000000    71.10000000    30.13000000
   H     76.88000000    68.96000000    28.94000000
   H     77.52000000    69.67000000    27.52000000
   H     78.48000000    69.63000000    28.96000000
   N     78.64000000    72.89000000    29.05000000
   C     79.49000000    73.93000000    28.49000000
   C     78.80000000    75.21000000    28.02000000
   O     79.22000000    75.92000000    27.11000000
   C     80.47000000    73.33000000    27.48000000
   C     81.21000000    72.12000000    28.05000000
   C     82.40000000    71.68000000    27.22000000
   O     82.53000000    72.06000000    26.04000000
   O     83.22000000    70.86000000    27.71000000
   H     78.75000000    72.59000000    30.00000000
   H     80.08000000    74.32000000    29.32000000
   H     81.21000000    74.02000000    27.07000000
   H     79.94000000    73.04000000    26.57000000
   H     80.48000000    71.31000000    28.11000000
   H     81.62000000    72.40000000    29.02000000
   N     77.69000000    75.50000000    28.70000000
   C     76.78000000    76.57000000    28.35000000
   H     75.87300000    76.48600000    28.94900000
   H     77.25600000    77.53100000    28.54500000
   H     76.52400000    76.49900000    27.29300000
   H     77.63000000    75.06000000    29.61000000
  Ca     84.40000000    70.49000000    25.37000000
   O     86.22000000    70.68000000    27.35000000
   H     87.09000000    70.97000000    27.63000000
   H     85.79000000    70.42000000    28.17000000
   O     82.14000000    69.09000000    25.03000000
   H     81.51000000    68.43000000    25.32000000
   H     81.85000000    69.33000000    24.15000000
   O     84.93000000    68.07000000    26.58000000
   H     84.52000000    67.79000000    27.40000000
   H     85.36000000    67.29000000    26.24000000
   O     86.73000000    69.93000000    24.10000000
   H     87.30000000    69.44000000    24.69000000
   H     87.29000000    70.13000000    23.35000000
   O     85.56000000    72.88000000    24.88000000
   H     85.12000000    73.73000000    24.94000000
   H     86.09000000    72.93000000    24.09000000

Ca 1.00



