%chk=loop3.holoCaM.run8.water3.chk
%nprocshared=20
%mem=10GB
%nosave
#b3lyp/svp scf=(tight,noincore,xqc) Test 
#IOP(5/87=12) Density=Current Pop=(MK,readradii) iop(6/33=2) iop(6/42=6)

loop3.holoCaM.run8.water3 

   0  1 
   C     31.18000000    44.26000000    29.54000000
   C     31.56000000    43.91000000    30.97000000
   O     30.89000000    44.45000000    31.84000000
   H     30.34300000    44.95900000    29.54800000
   H     32.03200000    44.72000000    29.03900000
   H     30.89100000    43.35400000    29.00800000
   N     32.64000000    43.15000000    31.20000000
   C     33.13000000    42.85000000    32.53000000
   C     33.84000000    44.09000000    33.05000000
   O     34.65000000    44.71000000    32.37000000
   C     34.07000000    41.65000000    32.51000000
   C     34.92000000    41.34000000    33.73000000
   O     34.90000000    42.06000000    34.75000000
   O     35.83000000    40.48000000    33.64000000
   H     33.24000000    42.77000000    30.49000000
   H     32.32000000    42.58000000    33.20000000
   H     34.81000000    41.85000000    31.74000000
   H     33.47000000    40.75000000    32.34000000
   N     33.50000000    44.53000000    34.27000000
   C     33.77000000    45.90000000    34.66000000
   C     35.19000000    46.16000000    35.12000000
   O     35.63000000    47.31000000    35.06000000
   C     32.74000000    46.35000000    35.69000000
   C     32.35000000    47.82000000    35.61000000
   C     31.14000000    48.12000000    36.50000000
   C     30.89000000    49.62000000    36.43000000
   N     30.17000000    50.05000000    37.64000000
   H     32.89000000    43.98000000    34.86000000
   H     33.55000000    46.44000000    33.74000000
   H     33.20000000    46.16000000    36.66000000
   H     31.78000000    45.83000000    35.66000000
   H     32.14000000    48.09000000    34.57000000
   H     33.25000000    48.36000000    35.88000000
   H     31.38000000    47.70000000    37.48000000
   H     30.27000000    47.59000000    36.11000000
   H     30.42000000    49.90000000    35.49000000
   H     31.83000000    50.18000000    36.50000000
   H     29.42000000    49.42000000    37.88000000
   H     30.86000000    49.97000000    38.37000000
   H     29.84000000    51.01000000    37.64000000
   N     35.93000000    45.13000000    35.54000000
   C     37.28000000    45.22000000    36.05000000
   C     38.20000000    44.24000000    35.33000000
   O     39.41000000    44.32000000    35.49000000
   C     37.30000000    44.82000000    37.53000000
   C     36.71000000    43.55000000    38.11000000
   O     36.22000000    42.72000000    37.32000000
   O     36.78000000    43.34000000    39.34000000
   H     35.40000000    44.27000000    35.58000000
   H     37.70000000    46.22000000    35.92000000
   H     37.03000000    45.66000000    38.17000000
   H     38.36000000    44.67000000    37.75000000
   N     37.72000000    43.33000000    34.48000000
   C     38.52000000    42.45000000    33.65000000
   C     39.09000000    41.24000000    34.37000000
   O     40.07000000    40.65000000    33.91000000
   H     36.72000000    43.15000000    34.51000000
   H     39.33000000    43.04000000    33.22000000
   H     37.99000000    42.08000000    32.77000000
   N     38.44000000    40.77000000    35.43000000
   C     38.78000000    39.53000000    36.10000000
   C     38.29000000    38.25000000    35.45000000
   O     38.56000000    37.13000000    35.89000000
   C     38.21000000    39.58000000    37.52000000
   C     36.74000000    39.23000000    37.68000000
   N     36.45000000    38.53000000    38.78000000
   O     35.87000000    39.59000000    36.89000000
   H     37.62000000    41.31000000    35.70000000
   H     39.87000000    39.53000000    36.12000000
   H     38.43000000    40.57000000    37.94000000
   H     38.83000000    38.95000000    38.15000000
   H     37.18000000    38.32000000    39.44000000
   H     35.49000000    38.36000000    39.05000000
   N     37.55000000    38.41000000    34.36000000
   C     37.04000000    37.30000000    33.58000000
   C     35.60000000    36.89000000    33.85000000
   O     35.13000000    35.93000000    33.25000000
   H     37.14000000    39.32000000    34.20000000
   H     37.61000000    36.37000000    33.54000000
   H     37.01000000    37.63000000    32.54000000
   N     34.90000000    37.63000000    34.72000000
   C     33.53000000    37.34000000    35.10000000
   C     32.54000000    38.49000000    35.20000000
   O     32.93000000    39.59000000    35.58000000
   C     33.36000000    36.58000000    36.41000000
   C     34.24000000    35.35000000    36.52000000
   C     35.31000000    35.33000000    37.42000000
   C     33.94000000    34.21000000    35.77000000
   C     36.01000000    34.16000000    37.71000000
   C     34.71000000    33.05000000    35.95000000
   C     35.71000000    33.01000000    36.94000000
   O     36.44000000    31.88000000    37.13000000
   H     35.40000000    38.40000000    35.13000000
   H     33.09000000    36.75000000    34.30000000
   H     32.30000000    36.35000000    36.54000000
   H     33.59000000    37.25000000    37.24000000
   H     35.64000000    36.19000000    37.99000000
   H     33.15000000    34.23000000    35.03000000
   H     36.85000000    34.09000000    38.39000000
   H     34.45000000    32.18000000    35.38000000
   H     36.29000000    31.25000000    36.42000000
   N     31.28000000    38.33000000    34.79000000
   C     30.30000000    39.40000000    34.72000000
   C     29.25000000    38.99000000    35.75000000
   O     28.78000000    37.86000000    35.74000000
   C     29.72000000    39.54000000    33.32000000
   C     30.82000000    39.97000000    32.35000000
   C     28.66000000    40.64000000    33.34000000
   C     30.44000000    39.77000000    30.89000000
   H     31.03000000    37.40000000    34.49000000
   H     30.83000000    40.33000000    34.91000000
   H     29.21000000    38.65000000    32.95000000
   H     31.55000000    39.17000000    32.45000000
   H     31.23000000    40.97000000    32.44000000
   H     27.80000000    40.43000000    33.98000000
   H     29.05000000    41.58000000    33.71000000
   H     28.29000000    40.82000000    32.33000000
   H     29.93000000    38.82000000    30.74000000
   H     29.79000000    40.59000000    30.57000000
   H     31.38000000    39.89000000    30.34000000
   N     28.81000000    39.97000000    36.55000000
   C     27.60000000    39.94000000    37.34000000
   C     26.40000000    40.75000000    36.85000000
   O     26.56000000    41.57000000    35.95000000
   C     27.91000000    40.27000000    38.79000000
   O     27.85000000    41.66000000    38.99000000
   H     29.45000000    40.73000000    36.75000000
   H     27.27000000    38.90000000    37.39000000
   H     28.95000000    40.01000000    38.98000000
   H     27.28000000    39.78000000    39.53000000
   H     28.26000000    41.94000000    39.82000000
   N     25.21000000    40.58000000    37.43000000
   C     24.08000000    41.37000000    36.99000000
   C     24.30000000    42.85000000    37.26000000
   O     23.76000000    43.64000000    36.49000000
   C     22.87000000    41.02000000    37.85000000
   H     24.93000000    39.93000000    38.16000000
   H     23.90000000    41.25000000    35.92000000
   H     23.06000000    41.23000000    38.91000000
   H     22.01000000    41.60000000    37.52000000
   H     22.71000000    39.96000000    37.65000000
   N     25.00000000    43.22000000    38.34000000
   C     25.29000000    44.62000000    38.58000000
   C     26.24000000    45.15000000    37.52000000
   O     26.34000000    46.36000000    37.32000000
   C     25.87000000    44.82000000    39.98000000
   H     25.18000000    42.53000000    39.05000000
   H     24.36000000    45.19000000    38.48000000
   H     26.91000000    44.52000000    39.98000000
   H     25.78000000    45.86000000    40.28000000
   H     25.35000000    44.20000000    40.71000000
   N     27.08000000    44.36000000    36.85000000
   C     28.00000000    44.72000000    35.78000000
   C     27.20000000    44.73000000    34.49000000
   O     27.37000000    45.66000000    33.71000000
   C     29.26000000    43.86000000    35.68000000
   C     30.00000000    43.66000000    37.00000000
   C     31.14000000    42.67000000    36.83000000
   O     32.12000000    42.90000000    36.08000000
   O     31.14000000    41.63000000    37.52000000
   H     27.06000000    43.38000000    37.07000000
   H     28.34000000    45.75000000    35.85000000
   H     29.91000000    44.24000000    34.89000000
   H     28.98000000    42.86000000    35.34000000
   H     29.29000000    43.24000000    37.70000000
   H     30.38000000    44.56000000    37.48000000
   N     26.36000000    43.74000000    34.18000000
   C     25.61000000    43.77000000    32.94000000
   H     24.71400000    44.37700000    33.07200000
   H     26.22700000    44.20100000    32.15200000
   H     25.32300000    42.75500000    32.66400000
   H     26.12000000    42.92000000    34.72000000
  Ca     34.06000000    41.39000000    37.04000000
   O     35.37000000    41.19000000    39.93000000
   H     35.71000000    40.83000000    40.75000000
   H     35.90000000    41.97000000    39.77000000
   O     33.29000000    39.60000000    38.90000000
   H     33.77000000    39.19000000    39.62000000
   H     32.50000000    39.06000000    38.80000000
   O     33.62000000    43.18000000    38.95000000
   H     33.83000000    44.10000000    39.09000000
   H     33.10000000    42.94000000    39.72000000

Ca 1.00



