%chk=loop2.apoCaM-CA-Ng.Init293.run89.water6.chk
%nprocshared=20
%mem=10GB
%nosave
#b3lyp/svp scf=(tight,noincore,xqc) Test 
#IOP(5/87=12) Density=Current Pop=(MK,readradii) iop(6/33=2) iop(6/42=6)

loop2.apoCaM-CA-Ng.Init293.run89.water6 

   -2  1 
   C     84.52000000    94.71000000     0.44000000
   C     84.49000000    96.16000000     0.91000000
   O     83.41000000    96.63000000     1.26000000
   H     85.54700000    94.42200000     0.21800000
   H     84.12400000    94.06500000     1.22400000
   H     83.91200000    94.60600000    -0.45900000
   N     85.60000000    96.87000000     0.70000000
   C     85.90000000    98.17000000     1.28000000
   C     85.25000000    99.32000000     0.52000000
   O     84.53000000   100.13000000     1.10000000
   C     87.40000000    98.40000000     1.46000000
   C     87.74000000    99.68000000     2.21000000
   O     88.69000000   100.39000000     1.83000000
   O     87.25000000    99.88000000     3.34000000
   H     86.28000000    96.36000000     0.15000000
   H     85.46000000    98.17000000     2.27000000
   H     87.82000000    98.54000000     0.46000000
   H     87.89000000    97.57000000     1.97000000
   N     85.50000000    99.38000000    -0.79000000
   C     84.76000000   100.19000000    -1.74000000
   C     83.24000000   100.16000000    -1.58000000
   O     82.62000000   101.15000000    -1.94000000
   C     85.43000000   101.55000000    -1.83000000
   H     86.04000000    98.70000000    -1.29000000
   H     85.10000000    99.71000000    -2.66000000
   H     85.42000000   101.94000000    -0.81000000
   H     86.46000000   101.41000000    -2.17000000
   H     84.87000000   102.28000000    -2.40000000
   N     82.68000000    99.09000000    -1.01000000
   C     81.24000000    99.02000000    -0.80000000
   C     80.50000000   100.14000000    -0.10000000
   O     79.30000000   100.34000000    -0.30000000
   C     80.60000000    98.55000000    -2.10000000
   C     81.46000000    97.48000000    -2.77000000
   O     82.13000000    96.61000000    -2.18000000
   O     81.40000000    97.42000000    -4.01000000
   H     83.21000000    98.24000000    -0.89000000
   H     81.12000000    98.21000000    -0.09000000
   H     80.45000000    99.38000000    -2.79000000
   H     79.58000000    98.22000000    -1.92000000
   N     81.17000000   100.99000000     0.68000000
   C     80.47000000   102.07000000     1.35000000
   C     79.54000000   101.70000000     2.50000000
   O     79.60000000   100.55000000     2.93000000
   H     82.17000000   100.93000000     0.80000000
   H     79.86000000   102.70000000     0.69000000
   H     81.15000000   102.75000000     1.86000000
   N     78.63000000   102.55000000     2.98000000
   C     77.51000000   102.18000000     3.82000000
   C     77.86000000   101.60000000     5.18000000
   O     76.92000000   101.15000000     5.82000000
   C     76.64000000   101.17000000     3.07000000
   C     76.14000000   101.62000000     1.71000000
   N     77.01000000   101.39000000     0.72000000
   O     75.06000000   102.12000000     1.42000000
   H     78.60000000   103.51000000     2.68000000
   H     76.87000000   103.05000000     3.98000000
   H     75.72000000   101.03000000     3.64000000
   H     77.18000000   100.23000000     2.96000000
   H     77.92000000   100.97000000     0.88000000
   H     76.63000000   101.72000000    -0.15000000
   N     79.10000000   101.71000000     5.67000000
   C     79.52000000   101.05000000     6.89000000
   C     80.13000000    99.66000000     6.74000000
   O     80.39000000    99.04000000     7.77000000
   H     79.83000000   101.88000000     4.99000000
   H     78.62000000   100.90000000     7.49000000
   H     80.18000000   101.75000000     7.40000000
   N     80.34000000    99.22000000     5.50000000
   C     80.99000000    97.96000000     5.21000000
   C     80.02000000    96.79000000     5.18000000
   O     78.88000000    96.99000000     4.79000000
   C     81.82000000    98.05000000     3.93000000
   C     82.70000000    99.29000000     3.81000000
   O     82.74000000    96.98000000     3.85000000
   H     80.21000000    99.85000000     4.72000000
   H     81.63000000    97.78000000     6.07000000
   H     81.20000000    97.96000000     3.04000000
   H     82.96000000    96.90000000     2.92000000
   H     82.24000000   100.23000000     3.51000000
   H     83.11000000    99.36000000     4.82000000
   H     83.45000000    99.11000000     3.04000000
   N     80.41000000    95.57000000     5.56000000
   C     79.64000000    94.39000000     5.22000000
   C     79.42000000    94.24000000     3.72000000
   O     80.27000000    94.62000000     2.92000000
   C     80.20000000    93.16000000     5.92000000
   C     81.59000000    92.78000000     5.42000000
   C     79.94000000    93.22000000     7.43000000
   C     82.07000000    91.45000000     6.01000000
   H     81.29000000    95.53000000     6.06000000
   H     78.64000000    94.61000000     5.60000000
   H     79.58000000    92.34000000     5.56000000
   H     82.36000000    93.51000000     5.67000000
   H     81.66000000    92.70000000     4.34000000
   H     80.06000000    92.22000000     7.84000000
   H     80.60000000    93.88000000     7.98000000
   H     78.91000000    93.57000000     7.54000000
   H     82.19000000    91.41000000     7.09000000
   H     81.51000000    90.60000000     5.62000000
   H     83.06000000    91.36000000     5.57000000
   N     78.39000000    93.52000000     3.25000000
   C     78.03000000    93.38000000     1.86000000
   C     76.61000000    93.87000000     1.59000000
   O     75.74000000    93.02000000     1.39000000
   C     78.41000000    92.01000000     1.32000000
   C     78.33000000    91.79000000    -0.19000000
   O     78.34000000    92.76000000    -0.97000000
   O     78.43000000    90.60000000    -0.56000000
   H     77.83000000    92.98000000     3.90000000
   H     78.68000000    94.08000000     1.33000000
   H     77.95000000    91.19000000     1.87000000
   H     79.47000000    91.97000000     1.58000000
   N     76.33000000    95.16000000     1.75000000
   C     75.06000000    95.79000000     1.46000000
   C     74.75000000    96.81000000     2.54000000
   O     74.33000000    97.89000000     2.14000000
   C     75.10000000    96.41000000     0.06000000
   C     73.78000000    96.75000000    -0.58000000
   C     73.60000000    98.06000000    -1.05000000
   C     72.67000000    95.90000000    -0.65000000
   C     72.44000000    98.49000000    -1.69000000
   C     71.48000000    96.27000000    -1.29000000
   C     71.42000000    97.54000000    -1.88000000
   H     77.14000000    95.76000000     1.84000000
   H     74.41000000    94.92000000     1.56000000
   H     75.66000000    95.68000000    -0.53000000
   H     75.68000000    97.33000000     0.13000000
   H     74.45000000    98.72000000    -0.93000000
   H     72.83000000    94.93000000    -0.21000000
   H     72.42000000    99.46000000    -2.17000000
   H     70.66000000    95.59000000    -1.45000000
   H     70.59000000    97.89000000    -2.48000000
   N     75.02000000    96.72000000     3.85000000
   C     75.59000000    95.59000000     4.55000000
   C     74.87000000    94.25000000     4.59000000
   O     75.42000000    93.15000000     4.62000000
   C     75.76000000    95.98000000     6.01000000
   C     75.80000000    97.51000000     5.90000000
   C     74.97000000    97.90000000     4.68000000
   H     76.60000000    95.38000000     4.18000000
   H     74.93000000    95.65000000     6.64000000
   H     76.70000000    95.56000000     6.36000000
   H     75.48000000    98.05000000     6.79000000
   H     76.80000000    97.87000000     5.69000000
   H     73.93000000    98.01000000     4.99000000
   H     75.47000000    98.80000000     4.31000000
   N     73.54000000    94.36000000     4.63000000
   C     72.59000000    93.31000000     4.95000000
   C     73.13000000    92.26000000     5.89000000
   O     73.12000000    91.09000000     5.51000000
   C     72.09000000    92.78000000     3.61000000
   C     71.32000000    93.82000000     2.80000000
   C     69.97000000    94.20000000     3.40000000
   O     69.86000000    95.26000000     4.04000000
   O     69.02000000    93.43000000     3.13000000
   H     73.09000000    95.27000000     4.63000000
   H     71.70000000    93.68000000     5.47000000
   H     71.38000000    91.98000000     3.82000000
   H     72.94000000    92.41000000     3.05000000
   H     71.23000000    93.48000000     1.76000000
   H     71.92000000    94.71000000     2.59000000
   N     73.51000000    92.63000000     7.12000000
   C     74.19000000    91.88000000     8.15000000
   H     75.10100000    92.40500000     8.44000000
   H     73.53800000    91.77900000     9.01800000
   H     74.44600000    90.89100000     7.77100000
   H     73.02000000    93.45000000     7.45000000
  Ca     81.72000000    94.74000000    -4.10000000
   O     79.07000000    94.71000000    -4.35000000
   H     78.60000000    95.06000000    -3.59000000
   H     78.61000000    95.08000000    -5.10000000
   O     84.19000000    96.48000000    -3.92000000
   H     85.05000000    96.78000000    -3.62000000
   H     83.60000000    96.67000000    -3.18000000
   O     80.59000000    94.15000000    -1.65000000
   H     80.71000000    94.92000000    -1.09000000
   H     79.88000000    93.66000000    -1.23000000
   O     80.63000000    92.46000000    -4.92000000
   H     80.59000000    91.79000000    -4.24000000
   H     79.71000000    92.66000000    -5.11000000
   O     83.31000000    93.96000000    -6.04000000
   H     83.47000000    93.11000000    -5.65000000
   H     83.03000000    93.77000000    -6.93000000
   O     80.75000000    95.71000000    -6.54000000
   H     81.29000000    96.36000000    -6.99000000
   H     80.42000000    95.14000000    -7.23000000

Ca 1.00



