%chk=loop1.apoCaM-CA-Ng.Init31.run10.water7.chk
%nprocshared=20
%mem=10GB
%nosave
#b3lyp/svp scf=(tight,noincore,xqc) Test 
#IOP(5/87=12) Density=Current Pop=(MK,readradii) iop(6/33=2) iop(6/42=6)

loop1.apoCaM-CA-Ng.Init31.run10.water7 

   0  1 
   C     58.54000000    88.47000000    -1.65000000
   C     57.09000000    88.24000000    -1.25000000
   O     56.26000000    88.13000000    -2.15000000
   H     59.17700000    87.75300000    -1.13200000
   H     58.64600000    88.33700000    -2.72700000
   H     58.83700000    89.48300000    -1.37700000
   N     56.76000000    88.38000000     0.04000000
   C     55.46000000    88.08000000     0.61000000
   C     54.63000000    89.35000000     0.56000000
   O     55.12000000    90.40000000     0.97000000
   C     55.61000000    87.60000000     2.05000000
   C     54.52000000    86.71000000     2.62000000
   O     54.34000000    86.65000000     3.85000000
   O     53.89000000    86.01000000     1.79000000
   H     57.47000000    88.55000000     0.74000000
   H     54.92000000    87.34000000     0.03000000
   H     55.79000000    88.42000000     2.74000000
   H     56.57000000    87.08000000     2.14000000
   N     53.42000000    89.25000000     0.00000000
   C     52.52000000    90.37000000    -0.21000000
   C     52.03000000    90.88000000     1.14000000
   O     52.02000000    92.10000000     1.24000000
   C     51.45000000    89.91000000    -1.19000000
   C     50.48000000    91.01000000    -1.61000000
   C     49.42000000    90.59000000    -2.62000000
   C     49.93000000    89.76000000    -3.80000000
   N     48.80000000    89.38000000    -4.67000000
   H     53.14000000    88.28000000    -0.08000000
   H     53.07000000    91.18000000    -0.68000000
   H     50.91000000    89.06000000    -0.76000000
   H     51.96000000    89.57000000    -2.09000000
   H     51.00000000    91.82000000    -2.13000000
   H     50.05000000    91.53000000    -0.76000000
   H     48.93000000    91.43000000    -3.13000000
   H     48.62000000    90.05000000    -2.11000000
   H     50.56000000    88.93000000    -3.51000000
   H     50.62000000    90.37000000    -4.38000000
   H     48.40000000    90.23000000    -5.04000000
   H     49.12000000    88.82000000    -5.45000000
   H     48.10000000    88.84000000    -4.19000000
   N     51.58000000    90.14000000     2.16000000
   C     51.02000000    88.81000000     2.03000000
   C     51.13000000    87.96000000     3.29000000
   O     51.18000000    88.43000000     4.43000000
   C     49.58000000    88.92000000     1.54000000
   C     49.20000000    87.71000000     0.71000000
   O     48.01000000    87.33000000     0.63000000
   O     50.01000000    87.06000000     0.01000000
   H     51.35000000    90.67000000     2.99000000
   H     51.57000000    88.25000000     1.27000000
   H     49.47000000    89.86000000     0.99000000
   H     48.94000000    89.15000000     2.39000000
   N     51.20000000    86.63000000     3.23000000
   C     51.00000000    85.74000000     4.36000000
   C     51.43000000    84.30000000     4.13000000
   O     50.72000000    83.37000000     4.50000000
   H     51.29000000    86.25000000     2.30000000
   H     49.96000000    85.79000000     4.68000000
   H     51.59000000    86.03000000     5.23000000
   N     52.53000000    84.11000000     3.40000000
   C     53.01000000    82.88000000     2.79000000
   C     53.47000000    81.84000000     3.81000000
   O     53.03000000    81.77000000     4.95000000
   C     52.00000000    82.47000000     1.73000000
   C     51.68000000    83.44000000     0.59000000
   O     50.71000000    84.21000000     0.74000000
   O     52.35000000    83.50000000    -0.46000000
   H     53.04000000    84.92000000     3.07000000
   H     53.89000000    83.25000000     2.26000000
   H     51.06000000    82.17000000     2.19000000
   H     52.50000000    81.63000000     1.25000000
   N     54.53000000    81.05000000     3.66000000
   C     55.45000000    80.79000000     2.57000000
   C     55.06000000    79.80000000     1.48000000
   O     55.77000000    79.71000000     0.48000000
   H     54.76000000    80.46000000     4.45000000
   H     56.35000000    80.41000000     3.06000000
   H     55.78000000    81.71000000     2.10000000
   N     53.85000000    79.25000000     1.51000000
   C     53.33000000    78.41000000     0.45000000
   C     54.09000000    77.09000000     0.37000000
   O     54.44000000    76.61000000    -0.71000000
   C     53.32000000    79.01000000    -0.95000000
   C     52.87000000    80.46000000    -1.15000000
   O     52.31000000    78.34000000    -1.66000000
   H     53.27000000    79.41000000     2.32000000
   H     52.27000000    78.21000000     0.59000000
   H     54.29000000    78.83000000    -1.40000000
   H     52.79000000    77.90000000    -2.36000000
   H     53.63000000    81.19000000    -0.90000000
   H     52.82000000    80.61000000    -2.23000000
   H     51.86000000    80.57000000    -0.75000000
   N     54.32000000    76.54000000     1.57000000
   C     54.94000000    75.27000000     1.88000000
   C     54.11000000    74.08000000     1.41000000
   O     53.56000000    73.31000000     2.19000000
   C     56.41000000    75.26000000     1.46000000
   C     57.11000000    76.52000000     1.95000000
   C     57.11000000    74.04000000     2.05000000
   C     57.18000000    76.80000000     3.44000000
   H     53.83000000    76.91000000     2.37000000
   H     54.96000000    75.18000000     2.96000000
   H     56.37000000    75.13000000     0.37000000
   H     56.60000000    77.39000000     1.52000000
   H     58.10000000    76.65000000     1.52000000
   H     56.89000000    73.13000000     1.49000000
   H     58.19000000    74.18000000     2.05000000
   H     56.87000000    73.80000000     3.08000000
   H     57.94000000    77.56000000     3.61000000
   H     56.22000000    77.12000000     3.84000000
   H     57.49000000    75.96000000     4.07000000
   N     54.13000000    73.92000000     0.09000000
   C     53.43000000    72.91000000    -0.68000000
   C     54.20000000    72.13000000    -1.73000000
   O     55.17000000    72.55000000    -2.36000000
   C     52.34000000    73.64000000    -1.47000000
   C     51.62000000    74.84000000    -0.87000000
   O     51.28000000    72.75000000    -1.77000000
   H     54.60000000    74.68000000    -0.39000000
   H     52.93000000    72.19000000    -0.04000000
   H     52.87000000    74.04000000    -2.34000000
   H     50.92000000    73.12000000    -2.58000000
   H     52.27000000    75.64000000    -0.50000000
   H     51.00000000    75.38000000    -1.58000000
   H     50.91000000    74.51000000    -0.11000000
   N     53.68000000    70.92000000    -1.96000000
   C     54.06000000    70.25000000    -3.19000000
   C     53.69000000    71.03000000    -4.44000000
   O     52.50000000    71.25000000    -4.67000000
   C     53.43000000    68.87000000    -3.29000000
   C     53.99000000    68.22000000    -4.56000000
   O     53.89000000    68.05000000    -2.24000000
   H     52.85000000    70.57000000    -1.50000000
   H     55.13000000    70.06000000    -3.13000000
   H     52.35000000    68.76000000    -3.32000000
   H     53.15000000    67.52000000    -1.95000000
   H     53.58000000    68.77000000    -5.40000000
   H     55.08000000    68.25000000    -4.54000000
   H     53.71000000    67.17000000    -4.67000000
   N     54.69000000    71.61000000    -5.11000000
   C     54.63000000    72.71000000    -6.05000000
   C     54.10000000    74.03000000    -5.51000000
   O     53.01000000    74.05000000    -4.95000000
   C     53.90000000    72.20000000    -7.29000000
   C     54.03000000    73.14000000    -8.48000000
   C     53.45000000    72.72000000    -9.83000000
   C     53.77000000    73.86000000   -10.79000000
   N     53.62000000    73.49000000   -12.21000000
   H     55.60000000    71.54000000    -4.68000000
   H     55.64000000    72.97000000    -6.38000000
   H     52.85000000    72.26000000    -7.03000000
   H     54.31000000    71.21000000    -7.53000000
   H     55.09000000    73.29000000    -8.69000000
   H     53.62000000    74.12000000    -8.26000000
   H     52.36000000    72.85000000    -9.80000000
   H     53.84000000    71.74000000   -10.10000000
   H     54.79000000    74.19000000   -10.60000000
   H     53.11000000    74.70000000   -10.57000000
   H     53.27000000    74.30000000   -12.71000000
   H     54.48000000    73.23000000   -12.66000000
   H     52.87000000    72.85000000   -12.45000000
   N     54.79000000    75.13000000    -5.80000000
   C     54.37000000    76.50000000    -5.58000000
   C     54.58000000    77.05000000    -4.17000000
   O     53.89000000    78.00000000    -3.82000000
   C     54.94000000    77.34000000    -6.72000000
   C     54.41000000    76.91000000    -8.08000000
   C     52.92000000    77.16000000    -8.32000000
   O     52.21000000    76.36000000    -8.97000000
   O     52.48000000    78.23000000    -7.84000000
   H     55.59000000    75.04000000    -6.42000000
   H     53.28000000    76.51000000    -5.65000000
   H     56.03000000    77.28000000    -6.66000000
   H     54.74000000    78.38000000    -6.49000000
   H     54.76000000    75.92000000    -8.37000000
   H     55.03000000    77.54000000    -8.72000000
   N     55.46000000    76.57000000    -3.29000000
   C     56.74000000    75.98000000    -3.63000000
   H     57.49100000    76.30300000    -2.90900000
   H     56.65800000    74.89300000    -3.60600000
   H     57.03500000    76.30100000    -4.62900000
   H     55.46000000    76.90000000    -2.33000000
  Ca     48.52000000    84.85000000    -0.58000000
   O     49.90000000    82.20000000    -1.50000000
   H     50.80000000    82.51000000    -1.39000000
   H     49.95000000    81.26000000    -1.31000000
   O     47.13000000    82.69000000     0.17000000
   H     46.83000000    82.91000000     1.05000000
   H     47.07000000    81.73000000     0.13000000
   O     45.70000000    85.42000000    -0.66000000
   H     45.35000000    86.26000000    -0.37000000
   H     45.09000000    85.13000000    -1.33000000
   O     47.29000000    84.16000000    -2.99000000
   H     46.41000000    84.35000000    -3.32000000
   H     47.82000000    84.05000000    -3.78000000
   O     47.77000000    87.31000000    -2.40000000
   H     47.41000000    87.97000000    -1.81000000
   H     47.03000000    87.03000000    -2.93000000
   O     50.09000000    84.97000000    -2.86000000
   H     51.01000000    84.71000000    -2.92000000
   H     49.97000000    85.58000000    -3.59000000
   O     48.45000000    84.40000000     2.16000000
   H     49.41000000    84.36000000     2.13000000
   H     48.20000000    83.80000000     2.86000000

Ca 1.00



