%chk=loop2.apoCaM-CA-Ng.Init31.run20.water3.chk
%nprocshared=20
%mem=10GB
%nosave
#b3lyp/svp scf=(tight,noincore,xqc) Test 
#IOP(5/87=12) Density=Current Pop=(MK,readradii) iop(6/33=2) iop(6/42=6)

loop2.apoCaM-CA-Ng.Init31.run20.water3 

   -2  1 
   C     89.54000000    51.74000000   -12.95000000
   C     88.08000000    51.33000000   -12.91000000
   O     87.35000000    51.93000000   -12.13000000
   H     90.13400000    50.92600000   -13.36600000
   H     89.65200000    52.62700000   -13.57400000
   H     89.88400000    51.96000000   -11.93900000
   N     87.60000000    50.36000000   -13.70000000
   C     88.21000000    49.39000000   -14.58000000
   C     87.68000000    48.00000000   -14.28000000
   O     86.52000000    47.70000000   -14.01000000
   C     87.88000000    49.92000000   -15.98000000
   C     86.42000000    50.15000000   -16.34000000
   O     86.22000000    50.54000000   -17.51000000
   O     85.45000000    49.99000000   -15.57000000
   H     86.60000000    50.25000000   -13.62000000
   H     89.29000000    49.46000000   -14.44000000
   H     88.32000000    49.19000000   -16.66000000
   H     88.49000000    50.80000000   -16.17000000
   N     88.61000000    47.04000000   -14.36000000
   C     88.39000000    45.61000000   -14.23000000
   C     87.61000000    45.10000000   -15.43000000
   O     88.12000000    44.81000000   -16.51000000
   C     88.00000000    45.16000000   -12.83000000
   H     89.58000000    47.26000000   -14.47000000
   H     89.38000000    45.23000000   -14.49000000
   H     86.95000000    45.35000000   -12.59000000
   H     88.20000000    44.10000000   -12.99000000
   H     88.68000000    45.56000000   -12.08000000
   N     86.28000000    45.05000000   -15.29000000
   C     85.31000000    44.81000000   -16.34000000
   C     85.11000000    46.18000000   -16.99000000
   O     84.97000000    47.20000000   -16.32000000
   C     83.96000000    44.25000000   -15.91000000
   C     83.40000000    44.73000000   -14.58000000
   O     83.82000000    45.76000000   -14.02000000
   O     82.38000000    44.19000000   -14.10000000
   H     85.98000000    45.49000000   -14.43000000
   H     85.76000000    44.17000000   -17.10000000
   H     84.13000000    43.18000000   -15.84000000
   H     83.23000000    44.35000000   -16.71000000
   N     85.01000000    46.24000000   -18.32000000
   C     85.09000000    47.39000000   -19.19000000
   C     83.93000000    48.36000000   -19.35000000
   O     83.49000000    48.66000000   -20.45000000
   H     85.27000000    45.43000000   -18.86000000
   H     85.25000000    47.06000000   -20.22000000
   H     86.01000000    47.95000000   -19.00000000
   N     83.36000000    48.84000000   -18.24000000
   C     81.97000000    49.24000000   -18.22000000
   C     81.68000000    50.40000000   -17.28000000
   O     80.52000000    50.64000000   -16.96000000
   C     81.19000000    47.97000000   -17.90000000
   C     81.29000000    47.59000000   -16.43000000
   N     80.47000000    46.65000000   -15.98000000
   O     81.99000000    48.15000000   -15.59000000
   H     83.87000000    48.69000000   -17.38000000
   H     81.58000000    49.60000000   -19.17000000
   H     81.58000000    47.12000000   -18.46000000
   H     80.15000000    48.11000000   -18.18000000
   H     79.76000000    46.48000000   -16.68000000
   H     80.46000000    46.50000000   -14.98000000
   N     82.69000000    51.16000000   -16.82000000
   C     82.51000000    52.24000000   -15.87000000
   C     82.44000000    51.76000000   -14.43000000
   O     82.75000000    50.62000000   -14.09000000
   H     83.62000000    50.93000000   -17.13000000
   H     81.59000000    52.75000000   -16.15000000
   H     83.31000000    52.98000000   -15.89000000
   N     82.01000000    52.63000000   -13.52000000
   C     81.61000000    54.02000000   -13.68000000
   C     82.29000000    54.91000000   -12.65000000
   O     82.45000000    56.12000000   -12.83000000
   C     80.11000000    54.15000000   -13.48000000
   C     79.35000000    53.46000000   -14.62000000
   O     79.72000000    53.76000000   -12.18000000
   H     82.09000000    52.35000000   -12.55000000
   H     81.86000000    54.41000000   -14.66000000
   H     79.95000000    55.21000000   -13.64000000
   H     79.07000000    54.43000000   -11.95000000
   H     79.67000000    52.42000000   -14.67000000
   H     78.28000000    53.51000000   -14.41000000
   H     79.53000000    53.94000000   -15.58000000
   N     82.89000000    54.41000000   -11.57000000
   C     83.26000000    55.19000000   -10.40000000
   C     82.15000000    56.03000000    -9.80000000
   O     81.98000000    57.20000000   -10.16000000
   C     84.52000000    56.01000000   -10.65000000
   C     85.65000000    55.11000000   -11.14000000
   C     84.90000000    56.64000000    -9.32000000
   C     86.93000000    55.82000000   -11.58000000
   H     82.84000000    53.41000000   -11.46000000
   H     83.49000000    54.49000000    -9.60000000
   H     84.33000000    56.82000000   -11.36000000
   H     85.25000000    54.46000000   -11.92000000
   H     86.00000000    54.52000000   -10.30000000
   H     84.17000000    57.39000000    -9.01000000
   H     84.91000000    55.86000000    -8.55000000
   H     85.91000000    57.04000000    -9.38000000
   H     87.77000000    55.14000000   -11.74000000
   H     86.73000000    56.32000000   -12.52000000
   H     87.25000000    56.62000000   -10.91000000
   N     81.27000000    55.49000000    -8.95000000
   C     81.28000000    54.15000000    -8.41000000
   C     81.93000000    53.95000000    -7.05000000
   O     82.30000000    52.82000000    -6.75000000
   C     79.79000000    53.83000000    -8.36000000
   C     78.84000000    54.84000000    -7.74000000
   O     77.61000000    54.62000000    -7.68000000
   O     79.25000000    55.85000000    -7.14000000
   H     80.55000000    56.07000000    -8.54000000
   H     81.70000000    53.40000000    -9.08000000
   H     79.61000000    52.93000000    -7.77000000
   H     79.52000000    53.61000000    -9.40000000
   N     82.13000000    55.00000000    -6.26000000
   C     82.91000000    55.00000000    -5.04000000
   C     82.07000000    54.57000000    -3.84000000
   O     80.84000000    54.60000000    -3.93000000
   C     83.56000000    56.37000000    -4.88000000
   C     82.60000000    57.41000000    -4.36000000
   C     81.65000000    57.96000000    -5.24000000
   C     82.68000000    57.75000000    -3.01000000
   C     80.74000000    58.90000000    -4.75000000
   C     81.81000000    58.76000000    -2.58000000
   C     80.87000000    59.36000000    -3.43000000
   H     81.72000000    55.88000000    -6.54000000
   H     83.67000000    54.24000000    -5.23000000
   H     84.05000000    56.65000000    -5.81000000
   H     84.38000000    56.31000000    -4.16000000
   H     81.55000000    57.76000000    -6.29000000
   H     83.29000000    57.22000000    -2.30000000
   H     79.86000000    59.19000000    -5.31000000
   H     81.92000000    59.19000000    -1.59000000
   H     80.19000000    60.11000000    -3.07000000
   N     82.64000000    54.25000000    -2.67000000
   C     84.06000000    54.17000000    -2.37000000
   C     84.83000000    53.02000000    -3.01000000
   O     84.24000000    52.08000000    -3.51000000
   C     84.12000000    54.12000000    -0.85000000
   C     82.81000000    53.44000000    -0.46000000
   C     81.82000000    53.87000000    -1.54000000
   H     84.57000000    55.10000000    -2.60000000
   H     84.99000000    53.62000000    -0.43000000
   H     84.19000000    55.13000000    -0.46000000
   H     82.89000000    52.35000000    -0.48000000
   H     82.49000000    53.74000000     0.53000000
   H     81.04000000    53.15000000    -1.76000000
   H     81.27000000    54.72000000    -1.14000000
   N     86.16000000    53.17000000    -2.94000000
   C     87.18000000    52.22000000    -3.35000000
   C     88.48000000    52.77000000    -3.91000000
   O     89.48000000    52.05000000    -3.87000000
   C     87.37000000    51.17000000    -2.26000000
   C     87.38000000    51.66000000    -0.82000000
   C     88.43000000    52.74000000    -0.59000000
   O     89.65000000    52.50000000    -0.61000000
   O     88.00000000    53.91000000    -0.50000000
   H     86.52000000    53.98000000    -2.46000000
   H     86.71000000    51.62000000    -4.12000000
   H     88.32000000    50.66000000    -2.39000000
   H     86.54000000    50.46000000    -2.29000000
   H     87.62000000    50.77000000    -0.25000000
   H     86.39000000    51.97000000    -0.48000000
   N     88.62000000    53.95000000    -4.52000000
   C     87.63000000    54.94000000    -4.89000000
   H     86.74700000    54.82200000    -4.26300000
   H     88.04400000    55.93900000    -4.74900000
   H     87.35300000    54.80500000    -5.93600000
   H     89.60000000    54.19000000    -4.62000000
  Ca     84.07000000    48.35000000   -14.00600000
   O     84.99000000    50.22000000   -12.28600000
   H     85.69000000    50.09000000   -11.64600000
   H     84.31000000    50.70000000   -11.81600000
   O     84.75000000    47.34000000   -11.61600000
   H     85.25000000    47.87000000   -10.99600000
   H     84.72000000    46.47000000   -11.22600000
   O     81.70000000    48.20000000   -12.46600000
   H     81.27000000    47.38000000   -12.71600000
   H     81.22000000    48.51000000   -11.70600000

Ca 1.00



