%chk=loop4.holoCaM-CaMKII.run51.water2.chk
%nprocshared=20
%mem=10GB
%nosave
#b3lyp/svp scf=(tight,noincore,xqc) Test 
#IOP(5/87=12) Density=Current Pop=(MK,readradii) iop(6/33=2) iop(6/42=6)

loop4.holoCaM-CaMKII.run51.water2 

   -3  1 
   C     35.20000000    57.08000000    14.51000000
   C     36.08000000    56.59000000    15.65000000
   O     36.00000000    57.14000000    16.75000000
   H     34.30900000    57.55700000    14.91900000
   H     35.75300000    57.80100000    13.90700000
   H     34.90600000    56.23500000    13.88800000
   N     36.99000000    55.64000000    15.42000000
   C     38.09000000    55.36000000    16.31000000
   C     39.17000000    56.44000000    16.25000000
   O     39.72000000    56.85000000    15.24000000
   C     38.73000000    54.04000000    15.91000000
   C     39.98000000    53.70000000    16.71000000
   O     41.01000000    53.36000000    16.08000000
   O     39.97000000    53.87000000    17.95000000
   H     37.04000000    55.36000000    14.45000000
   H     37.79000000    55.33000000    17.36000000
   H     38.90000000    53.97000000    14.84000000
   H     37.94000000    53.31000000    16.09000000
   N     39.54000000    56.89000000    17.45000000
   C     40.35000000    58.08000000    17.60000000
   C     41.62000000    57.87000000    18.43000000
   O     42.43000000    58.79000000    18.52000000
   C     39.42000000    59.26000000    17.86000000
   C     38.65000000    59.09000000    19.17000000
   C     38.44000000    59.49000000    16.71000000
   C     37.90000000    60.28000000    19.76000000
   H     39.20000000    56.47000000    18.31000000
   H     40.85000000    58.32000000    16.66000000
   H     40.06000000    60.13000000    17.96000000
   H     39.45000000    58.97000000    19.90000000
   H     37.89000000    58.32000000    19.07000000
   H     37.71000000    58.69000000    16.70000000
   H     37.90000000    60.43000000    16.80000000
   H     38.95000000    59.54000000    15.75000000
   H     38.51000000    61.17000000    19.68000000
   H     36.94000000    60.30000000    19.25000000
   H     37.68000000    60.09000000    20.81000000
   N     41.86000000    56.70000000    19.01000000
   C     43.13000000    56.48000000    19.68000000
   C     44.01000000    55.43000000    19.03000000
   O     45.15000000    55.13000000    19.41000000
   C     42.92000000    56.25000000    21.18000000
   C     41.97000000    55.11000000    21.51000000
   O     41.32000000    54.47000000    20.65000000
   O     41.92000000    54.88000000    22.74000000
   H     41.19000000    55.96000000    18.87000000
   H     43.80000000    57.33000000    19.61000000
   H     42.42000000    57.13000000    21.58000000
   H     43.88000000    56.11000000    21.67000000
   N     43.49000000    54.80000000    17.98000000
   C     44.19000000    53.88000000    17.10000000
   C     44.24000000    52.42000000    17.52000000
   O     45.28000000    51.77000000    17.52000000
   H     42.52000000    54.95000000    17.75000000
   H     45.14000000    54.34000000    16.82000000
   H     43.67000000    53.87000000    16.14000000
   N     43.05000000    51.87000000    17.79000000
   C     42.83000000    50.50000000    18.19000000
   C     41.94000000    49.68000000    17.26000000
   O     41.88000000    48.45000000    17.27000000
   C     42.35000000    50.20000000    19.60000000
   C     41.09000000    50.97000000    19.99000000
   O     40.10000000    51.05000000    19.23000000
   O     41.03000000    51.52000000    21.11000000
   H     42.28000000    52.52000000    17.69000000
   H     43.78000000    49.97000000    18.20000000
   H     43.14000000    50.51000000    20.29000000
   H     42.17000000    49.13000000    19.71000000
   N     41.19000000    50.35000000    16.39000000
   C     40.31000000    49.74000000    15.41000000
   C     38.88000000    49.54000000    15.88000000
   O     38.12000000    48.87000000    15.19000000
   H     41.30000000    51.35000000    16.49000000
   H     40.78000000    48.81000000    15.08000000
   H     40.40000000    50.38000000    14.54000000
   N     38.44000000    50.08000000    17.02000000
   C     37.10000000    49.94000000    17.57000000
   C     36.53000000    51.25000000    18.08000000
   O     37.26000000    52.13000000    18.53000000
   C     37.05000000    48.89000000    18.68000000
   C     37.44000000    47.47000000    18.29000000
   C     37.32000000    46.54000000    19.48000000
   N     38.31000000    45.68000000    19.75000000
   O     36.37000000    46.65000000    20.26000000
   H     39.16000000    50.51000000    17.59000000
   H     36.42000000    49.70000000    16.76000000
   H     36.03000000    48.95000000    19.06000000
   H     37.65000000    49.24000000    19.52000000
   H     38.50000000    47.48000000    18.00000000
   H     36.78000000    47.18000000    17.47000000
   H     39.09000000    45.66000000    19.11000000
   H     38.22000000    45.07000000    20.54000000
   N     35.20000000    51.35000000    18.23000000
   C     34.51000000    52.56000000    18.62000000
   C     33.87000000    52.29000000    19.97000000
   O     32.85000000    51.61000000    19.98000000
   C     33.63000000    53.07000000    17.48000000
   C     33.17000000    54.51000000    17.72000000
   C     34.25000000    52.99000000    16.09000000
   H     34.64000000    50.60000000    17.86000000
   H     35.25000000    53.35000000    18.78000000
   H     32.76000000    52.42000000    17.43000000
   H     32.40000000    54.82000000    17.02000000
   H     32.79000000    54.61000000    18.74000000
   H     33.98000000    55.23000000    17.61000000
   H     34.36000000    51.94000000    15.81000000
   H     33.59000000    53.35000000    15.30000000
   H     35.20000000    53.51000000    16.17000000
   N     34.35000000    52.94000000    21.04000000
   C     33.73000000    52.87000000    22.35000000
   C     32.47000000    53.73000000    22.35000000
   O     32.21000000    54.53000000    21.46000000
   C     34.76000000    53.41000000    23.34000000
   C     34.45000000    52.99000000    24.76000000
   N     35.43000000    53.16000000    25.65000000
   O     33.38000000    52.48000000    25.11000000
   H     35.15000000    53.55000000    20.95000000
   H     33.44000000    51.86000000    22.61000000
   H     34.92000000    54.49000000    23.26000000
   H     35.78000000    53.11000000    23.09000000
   H     36.29000000    53.62000000    25.38000000
   H     35.20000000    52.91000000    26.61000000
   N     31.65000000    53.61000000    23.40000000
   C     30.45000000    54.40000000    23.45000000
   C     30.74000000    55.89000000    23.52000000
   O     30.16000000    56.65000000    22.75000000
   C     29.61000000    53.95000000    24.65000000
   C     28.38000000    54.73000000    25.05000000
   C     27.42000000    54.99000000    24.06000000
   C     28.11000000    55.08000000    26.38000000
   C     26.31000000    55.80000000    24.37000000
   C     26.90000000    55.69000000    26.73000000
   C     25.98000000    56.04000000    25.72000000
   O     24.80000000    56.60000000    26.10000000
   H     31.73000000    52.81000000    24.02000000
   H     29.92000000    54.21000000    22.52000000
   H     30.24000000    53.76000000    25.51000000
   H     29.39000000    52.91000000    24.40000000
   H     27.52000000    54.70000000    23.03000000
   H     28.79000000    54.94000000    27.20000000
   H     25.64000000    56.09000000    23.58000000
   H     26.70000000    55.86000000    27.78000000
   H     24.75000000    56.39000000    27.03000000
   N     31.69000000    56.29000000    24.37000000
   C     32.20000000    57.64000000    24.22000000
   C     32.78000000    58.03000000    22.87000000
   O     32.70000000    59.21000000    22.55000000
   C     33.29000000    57.91000000    25.25000000
   C     34.55000000    57.06000000    25.24000000
   C     35.64000000    57.69000000    26.10000000
   O     36.75000000    57.98000000    25.61000000
   O     35.38000000    57.74000000    27.33000000
   H     32.03000000    55.64000000    25.06000000
   H     31.49000000    58.44000000    24.41000000
   H     32.79000000    57.80000000    26.22000000
   H     33.54000000    58.97000000    25.23000000
   H     35.00000000    57.01000000    24.25000000
   H     34.24000000    56.05000000    25.55000000
   N     33.34000000    57.10000000    22.08000000
   C     33.76000000    57.49000000    20.74000000
   C     32.65000000    57.70000000    19.72000000
   O     32.84000000    58.52000000    18.83000000
   C     34.85000000    56.51000000    20.33000000
   C     36.19000000    56.68000000    21.05000000
   C     37.15000000    55.58000000    20.63000000
   O     38.34000000    55.85000000    20.36000000
   O     36.83000000    54.37000000    20.61000000
   H     33.53000000    56.16000000    22.38000000
   H     34.40000000    58.37000000    20.79000000
   H     35.01000000    56.54000000    19.25000000
   H     34.48000000    55.51000000    20.53000000
   H     36.08000000    56.77000000    22.13000000
   H     36.51000000    57.65000000    20.67000000
   N     31.55000000    56.96000000    19.85000000
   C     30.35000000    57.10000000    19.05000000
   H     29.58400000    57.61300000    19.63200000
   H     30.57500000    57.68000000    18.15500000
   H     29.98700000    56.11300000    18.76300000
   H     31.56000000    56.39000000    20.69000000
  Ca     39.09000000    53.24000000    20.26000000
   O     38.20000000    50.81000000    21.56000000
   H     38.23000000    50.69000000    22.51000000
   H     38.85000000    50.20000000    21.22000000
   O     39.24000000    54.23000000    22.69000000
   H     38.87000000    54.99000000    23.14000000
   H     40.18000000    54.29000000    22.86000000

Ca 1.00



