%chk=loop1.holoCaM.run80.water2.chk
%nprocshared=20
%mem=10GB
%nosave
#b3lyp/svp scf=(tight,noincore,xqc) Test 
#IOP(5/87=12) Density=Current Pop=(MK,readradii) iop(6/33=2) iop(6/42=6)

loop1.holoCaM.run80.water2 

   0  1 
   C     35.56000000    60.83000000    50.00000000
   C     35.04000000    59.41000000    50.16000000
   O     34.24000000    58.93000000    49.36000000
   H     36.53000000    60.80700000    49.50300000
   H     34.85800000    61.40900000    49.40000000
   H     35.66700000    61.29100000    50.98200000
   N     35.43000000    58.63000000    51.17000000
   C     34.85000000    57.40000000    51.68000000
   C     33.64000000    57.80000000    52.51000000
   O     33.80000000    58.44000000    53.54000000
   C     35.87000000    56.54000000    52.41000000
   C     35.38000000    55.17000000    52.87000000
   O     36.02000000    54.59000000    53.78000000
   O     34.24000000    54.81000000    52.52000000
   H     36.19000000    59.00000000    51.73000000
   H     34.48000000    56.88000000    50.80000000
   H     36.08000000    57.14000000    53.30000000
   H     36.77000000    56.29000000    51.85000000
   N     32.44000000    57.55000000    51.97000000
   C     31.15000000    58.06000000    52.39000000
   C     30.46000000    57.08000000    53.32000000
   O     29.58000000    57.51000000    54.06000000
   C     30.18000000    58.41000000    51.26000000
   C     30.55000000    59.53000000    50.29000000
   C     30.59000000    60.86000000    51.05000000
   C     31.08000000    62.09000000    50.29000000
   N     30.95000000    63.31000000    51.10000000
   H     32.39000000    57.05000000    51.09000000
   H     31.32000000    58.97000000    52.96000000
   H     29.21000000    58.59000000    51.71000000
   H     29.89000000    57.53000000    50.69000000
   H     29.76000000    59.49000000    49.54000000
   H     31.51000000    59.24000000    49.88000000
   H     31.20000000    60.75000000    51.94000000
   H     29.58000000    61.08000000    51.41000000
   H     30.58000000    62.19000000    49.33000000
   H     32.13000000    61.91000000    50.08000000
   H     31.46000000    64.10000000    50.72000000
   H     30.03000000    63.72000000    51.01000000
   H     31.02000000    63.08000000    52.08000000
   N     30.75000000    55.77000000    53.36000000
   C     30.32000000    54.88000000    54.41000000
   C     31.52000000    54.42000000    55.23000000
   O     31.32000000    53.64000000    56.16000000
   C     29.37000000    53.77000000    53.96000000
   C     30.04000000    52.77000000    53.03000000
   O     31.21000000    52.97000000    52.65000000
   O     29.34000000    51.78000000    52.72000000
   H     31.38000000    55.42000000    52.66000000
   H     29.70000000    55.46000000    55.09000000
   H     28.45000000    54.14000000    53.49000000
   H     29.00000000    53.18000000    54.80000000
   N     32.78000000    54.82000000    55.05000000
   C     33.81000000    54.79000000    56.06000000
   C     34.30000000    53.39000000    56.42000000
   O     34.80000000    53.25000000    57.53000000
   H     33.07000000    55.32000000    54.22000000
   H     33.44000000    55.34000000    56.93000000
   H     34.61000000    55.44000000    55.70000000
   N     34.25000000    52.47000000    55.46000000
   C     34.68000000    51.08000000    55.39000000
   C     36.10000000    50.84000000    54.90000000
   O     36.55000000    49.70000000    54.83000000
   C     33.72000000    50.16000000    54.65000000
   C     33.65000000    50.46000000    53.15000000
   O     33.17000000    49.61000000    52.38000000
   O     34.23000000    51.45000000    52.67000000
   H     33.99000000    52.90000000    54.58000000
   H     34.65000000    50.75000000    56.43000000
   H     32.74000000    50.39000000    55.05000000
   H     34.03000000    49.12000000    54.81000000
   N     36.88000000    51.91000000    54.72000000
   C     38.29000000    51.84000000    54.37000000
   C     38.60000000    51.72000000    52.89000000
   O     39.74000000    51.44000000    52.55000000
   H     36.54000000    52.83000000    54.94000000
   H     38.80000000    50.98000000    54.81000000
   H     38.78000000    52.78000000    54.61000000
   N     37.58000000    51.77000000    52.02000000
   C     37.69000000    51.84000000    50.57000000
   C     36.57000000    52.61000000    49.89000000
   O     35.53000000    52.94000000    50.46000000
   C     37.65000000    50.49000000    49.87000000
   C     38.83000000    49.57000000    50.20000000
   O     36.44000000    49.81000000    50.09000000
   H     36.63000000    51.78000000    52.34000000
   H     38.64000000    52.31000000    50.32000000
   H     37.78000000    50.66000000    48.80000000
   H     36.55000000    48.99000000    49.60000000
   H     39.79000000    50.08000000    50.13000000
   H     38.96000000    49.27000000    51.24000000
   H     38.72000000    48.74000000    49.51000000
   N     36.95000000    53.07000000    48.70000000
   C     36.14000000    53.94000000    47.87000000
   C     35.63000000    53.20000000    46.64000000
   O     36.43000000    52.56000000    45.96000000
   C     36.86000000    55.23000000    47.50000000
   C     37.32000000    55.99000000    48.74000000
   C     36.23000000    56.19000000    46.50000000
   C     38.32000000    57.11000000    48.44000000
   H     37.82000000    52.71000000    48.32000000
   H     35.21000000    54.25000000    48.34000000
   H     37.73000000    54.84000000    46.97000000
   H     37.89000000    55.33000000    49.40000000
   H     36.49000000    56.47000000    49.27000000
   H     35.39000000    56.72000000    46.96000000
   H     36.90000000    57.00000000    46.20000000
   H     35.91000000    55.66000000    45.61000000
   H     37.88000000    58.00000000    47.99000000
   H     38.81000000    57.48000000    49.35000000
   H     39.09000000    56.68000000    47.81000000
   N     34.37000000    53.47000000    46.29000000
   C     33.56000000    52.86000000    45.26000000
   C     33.36000000    53.82000000    44.09000000
   O     33.54000000    55.03000000    44.22000000
   C     32.22000000    52.36000000    45.80000000
   C     32.36000000    51.39000000    46.97000000
   O     31.57000000    53.52000000    46.29000000
   H     33.96000000    54.11000000    46.95000000
   H     34.10000000    52.01000000    44.84000000
   H     31.58000000    51.95000000    45.03000000
   H     31.97000000    53.69000000    47.14000000
   H     33.06000000    50.59000000    46.75000000
   H     32.70000000    51.84000000    47.91000000
   H     31.43000000    50.84000000    47.12000000
   N     32.66000000    53.32000000    43.07000000
   C     32.45000000    54.07000000    41.85000000
   C     31.31000000    55.05000000    42.11000000
   O     31.44000000    56.17000000    41.64000000
   C     31.99000000    53.16000000    40.71000000
   C     33.12000000    52.47000000    39.97000000
   O     31.14000000    52.13000000    41.15000000
   H     32.45000000    52.33000000    43.07000000
   H     33.36000000    54.58000000    41.53000000
   H     31.49000000    53.79000000    39.97000000
   H     30.82000000    51.69000000    40.36000000
   H     33.48000000    51.67000000    40.61000000
   H     32.84000000    51.99000000    39.03000000
   H     33.95000000    53.18000000    39.88000000
   N     30.34000000    54.69000000    42.95000000
   C     29.34000000    55.62000000    43.45000000
   C     29.98000000    56.71000000    44.28000000
   O     29.45000000    57.82000000    44.25000000
   C     28.34000000    54.87000000    44.32000000
   C     27.27000000    54.11000000    43.54000000
   C     27.85000000    53.19000000    42.47000000
   C     26.74000000    52.35000000    41.84000000
   N     27.16000000    51.50000000    40.71000000
   H     30.28000000    53.78000000    43.38000000
   H     28.91000000    56.16000000    42.60000000
   H     27.81000000    55.58000000    44.95000000
   H     28.78000000    54.08000000    44.93000000
   H     26.76000000    54.94000000    43.05000000
   H     26.54000000    53.52000000    44.10000000
   H     28.66000000    52.58000000    42.88000000
   H     28.30000000    53.82000000    41.70000000
   H     25.95000000    53.03000000    41.53000000
   H     26.33000000    51.70000000    42.62000000
   H     27.49000000    50.57000000    40.93000000
   H     26.36000000    51.28000000    40.13000000
   H     27.77000000    51.93000000    40.04000000
   N     31.10000000    56.44000000    44.96000000
   C     31.81000000    57.47000000    45.70000000
   C     32.70000000    58.35000000    44.84000000
   O     33.12000000    59.36000000    45.41000000
   C     32.52000000    56.87000000    46.91000000
   C     31.56000000    56.35000000    47.98000000
   C     32.18000000    55.41000000    49.00000000
   O     32.75000000    54.37000000    48.62000000
   O     32.00000000    55.62000000    50.22000000
   H     31.51000000    55.51000000    45.00000000
   H     31.04000000    58.14000000    46.08000000
   H     33.18000000    57.64000000    47.31000000
   H     33.13000000    56.06000000    46.51000000
   H     30.75000000    55.85000000    47.44000000
   H     31.04000000    57.25000000    48.30000000
   N     32.97000000    58.08000000    43.56000000
   C     33.65000000    58.92000000    42.59000000
   H     34.64600000    58.52000000    42.39900000
   H     33.08100000    58.93600000    41.66000000
   H     33.73500000    59.93300000    42.98200000
   H     32.63000000    57.19000000    43.26000000
  Ca     33.09000000    53.20000000    51.03000000
   O     33.68000000    50.57000000    49.86000000
   H     33.22000000    50.12000000    50.57000000
   H     34.52000000    50.11000000    49.80000000
   O     30.84000000    51.91000000    50.11000000
   H     30.49000000    51.78000000    50.99000000
   H     30.27000000    51.38000000    49.55000000

Ca 1.00



