%chk=loop3.apoCaM-CA-Ng.Init293.run70.water5.chk
%nprocshared=20
%mem=10GB
%nosave
#b3lyp/svp scf=(tight,noincore,xqc) Test 
#IOP(5/87=12) Density=Current Pop=(MK,readradii) iop(6/33=2) iop(6/42=6)

loop3.apoCaM-CA-Ng.Init293.run70.water5 

   0  1 
   C     75.23000000    52.95000000    43.10000000
   C     76.21000000    51.78000000    43.18000000
   O     77.42000000    51.97000000    43.24000000
   H     74.31700000    52.69600000    43.63800000
   H     75.68200000    53.83400000    43.54900000
   H     74.99100000    53.15400000    42.05600000
   N     75.68000000    50.55000000    43.22000000
   C     76.39000000    49.32000000    43.51000000
   C     75.77000000    48.74000000    44.77000000
   O     74.62000000    49.04000000    45.09000000
   C     76.22000000    48.34000000    42.34000000
   C     77.09000000    47.10000000    42.46000000
   O     78.27000000    47.14000000    42.88000000
   O     76.65000000    46.02000000    42.01000000
   H     74.68000000    50.55000000    43.31000000
   H     77.45000000    49.54000000    43.59000000
   H     76.53000000    48.92000000    41.47000000
   H     75.16000000    48.09000000    42.32000000
   N     76.45000000    47.87000000    45.51000000
   C     75.96000000    46.92000000    46.49000000
   C     74.93000000    45.90000000    46.03000000
   O     74.33000000    46.11000000    44.98000000
   C     75.52000000    47.74000000    47.70000000
   C     75.77000000    47.03000000    49.03000000
   C     74.92000000    47.66000000    50.13000000
   C     73.46000000    47.23000000    50.06000000
   N     73.39000000    45.78000000    50.31000000
   H     77.41000000    47.69000000    45.24000000
   H     76.79000000    46.34000000    46.89000000
   H     74.48000000    48.03000000    47.51000000
   H     76.13000000    48.64000000    47.74000000
   H     76.83000000    47.04000000    49.27000000
   H     75.51000000    45.98000000    48.95000000
   H     74.92000000    48.72000000    49.92000000
   H     75.43000000    47.59000000    51.09000000
   H     72.98000000    47.53000000    49.13000000
   H     72.93000000    47.78000000    50.84000000
   H     72.49000000    45.33000000    50.18000000
   H     74.01000000    45.27000000    49.70000000
   H     73.77000000    45.54000000    51.21000000
   N     74.80000000    44.82000000    46.81000000
   C     73.70000000    43.91000000    46.59000000
   C     72.33000000    44.48000000    46.96000000
   O     72.20000000    45.56000000    47.52000000
   C     74.00000000    42.56000000    47.23000000
   C     74.42000000    42.58000000    48.70000000
   O     74.53000000    41.53000000    49.36000000
   O     74.81000000    43.62000000    49.28000000
   H     75.41000000    44.64000000    47.59000000
   H     73.55000000    43.82000000    45.51000000
   H     74.62000000    41.90000000    46.63000000
   H     73.02000000    42.09000000    47.37000000
   N     71.27000000    43.71000000    46.72000000
   C     69.90000000    44.19000000    46.78000000
   C     68.94000000    43.22000000    46.12000000
   O     68.36000000    43.45000000    45.06000000
   H     71.53000000    42.82000000    46.33000000
   H     69.87000000    45.18000000    46.32000000
   H     69.75000000    44.21000000    47.86000000
   N     68.77000000    42.08000000    46.80000000
   C     67.84000000    41.06000000    46.35000000
   C     66.38000000    41.18000000    46.75000000
   O     66.11000000    41.62000000    47.86000000
   C     68.49000000    39.71000000    46.62000000
   C     67.49000000    38.58000000    46.80000000
   N     67.13000000    37.80000000    45.78000000
   O     66.87000000    38.53000000    47.86000000
   H     69.31000000    41.95000000    47.64000000
   H     67.94000000    41.10000000    45.26000000
   H     69.10000000    39.79000000    47.52000000
   H     69.19000000    39.48000000    45.82000000
   H     67.54000000    37.96000000    44.86000000
   H     66.55000000    37.01000000    46.02000000
   N     65.50000000    40.68000000    45.88000000
   C     64.07000000    40.65000000    46.11000000
   C     63.48000000    41.91000000    46.73000000
   O     63.90000000    42.97000000    46.28000000
   H     65.82000000    40.34000000    44.98000000
   H     63.95000000    39.84000000    46.83000000
   H     63.58000000    40.50000000    45.14000000
   N     62.56000000    41.92000000    47.70000000
   C     62.02000000    43.00000000    48.49000000
   C     62.87000000    44.14000000    49.02000000
   O     62.31000000    45.06000000    49.62000000
   C     60.61000000    43.30000000    47.97000000
   C     60.50000000    43.81000000    46.55000000
   C     61.20000000    44.97000000    46.21000000
   C     59.99000000    43.03000000    45.51000000
   C     61.29000000    45.33000000    44.86000000
   C     60.09000000    43.40000000    44.16000000
   C     60.77000000    44.58000000    43.79000000
   O     60.82000000    44.93000000    42.47000000
   H     62.13000000    41.04000000    47.94000000
   H     61.82000000    42.46000000    49.42000000
   H     60.15000000    43.95000000    48.71000000
   H     59.99000000    42.41000000    48.04000000
   H     61.64000000    45.63000000    46.95000000
   H     59.52000000    42.11000000    45.82000000
   H     61.79000000    46.21000000    44.47000000
   H     59.61000000    42.81000000    43.39000000
   H     60.31000000    44.41000000    41.86000000
   N     64.20000000    44.08000000    48.92000000
   C     65.23000000    44.88000000    49.55000000
   C     65.28000000    44.97000000    51.07000000
   O     66.32000000    45.18000000    51.68000000
   C     65.29000000    46.23000000    48.85000000
   C     65.35000000    46.36000000    47.33000000
   C     66.38000000    47.11000000    49.45000000
   C     66.67000000    45.80000000    46.80000000
   H     64.55000000    43.25000000    48.45000000
   H     66.12000000    44.27000000    49.34000000
   H     64.33000000    46.68000000    49.14000000
   H     65.25000000    47.42000000    47.11000000
   H     64.49000000    45.90000000    46.85000000
   H     67.28000000    46.49000000    49.53000000
   H     66.58000000    47.97000000    48.81000000
   H     66.23000000    47.54000000    50.44000000
   H     67.53000000    46.41000000    47.08000000
   H     66.95000000    44.80000000    47.11000000
   H     66.62000000    45.89000000    45.72000000
   N     64.18000000    44.85000000    51.82000000
   C     63.96000000    44.53000000    53.22000000
   C     64.57000000    45.47000000    54.25000000
   O     64.80000000    45.06000000    55.38000000
   C     62.45000000    44.66000000    53.38000000
   O     61.68000000    44.03000000    52.37000000
   H     63.35000000    44.77000000    51.26000000
   H     64.28000000    43.51000000    53.40000000
   H     62.19000000    45.72000000    53.40000000
   H     62.18000000    44.20000000    54.33000000
   H     60.77000000    44.04000000    52.69000000
   N     64.77000000    46.73000000    53.85000000
   C     65.31000000    47.80000000    54.67000000
   C     66.70000000    47.51000000    55.21000000
   O     67.23000000    48.07000000    56.17000000
   C     64.29000000    48.15000000    55.76000000
   H     64.47000000    46.96000000    52.92000000
   H     65.48000000    48.68000000    54.06000000
   H     63.31000000    48.28000000    55.29000000
   H     64.30000000    47.25000000    56.38000000
   H     64.60000000    49.05000000    56.28000000
   N     67.33000000    46.52000000    54.58000000
   C     68.63000000    45.99000000    54.93000000
   C     69.81000000    46.80000000    54.41000000
   O     69.67000000    47.38000000    53.33000000
   C     68.63000000    44.50000000    54.59000000
   H     66.83000000    46.15000000    53.78000000
   H     68.72000000    45.97000000    56.01000000
   H     67.77000000    44.12000000    55.15000000
   H     68.54000000    44.40000000    53.51000000
   H     69.41000000    43.85000000    54.98000000
   N     70.88000000    46.81000000    55.20000000
   C     72.15000000    47.45000000    54.90000000
   C     72.09000000    48.89000000    54.43000000
   O     73.09000000    49.21000000    53.79000000
   C     72.86000000    46.56000000    53.89000000
   C     73.13000000    45.18000000    54.49000000
   C     74.22000000    44.43000000    53.72000000
   O     74.69000000    43.38000000    54.20000000
   O     74.59000000    44.77000000    52.58000000
   H     70.77000000    46.39000000    56.11000000
   H     72.76000000    47.45000000    55.80000000
   H     73.83000000    47.00000000    53.67000000
   H     72.17000000    46.35000000    53.08000000
   H     72.29000000    44.49000000    54.38000000
   H     73.55000000    45.28000000    55.49000000
   N     71.11000000    49.70000000    54.84000000
   C     70.84000000    50.98000000    54.21000000
   H     69.96800000    51.43700000    54.67700000
   H     71.70300000    51.63500000    54.33300000
   H     70.64600000    50.82900000    53.14800000
   H     70.39000000    49.38000000    55.47000000
  Ca     75.48000000    42.42000000    51.67000000
   O     77.55000000    42.69000000    53.44000000
   H     77.73000000    43.25000000    54.20000000
   H     78.25000000    42.03000000    53.46000000
   O     77.10000000    40.39000000    50.50000000
   H     77.01000000    40.04000000    49.61000000
   H     77.96000000    40.10000000    50.78000000
   O     75.08000000    40.38000000    53.30000000
   H     74.80000000    40.67000000    54.17000000
   H     75.19000000    39.43000000    53.38000000
   O     77.29000000    43.81000000    50.49000000
   H     77.06000000    43.99000000    49.58000000
   H     78.23000000    43.62000000    50.47000000
   O     72.84000000    41.92000000    52.09000000
   H     72.04000000    42.30000000    51.73000000
   H     72.57000000    41.05000000    52.39000000

Ca 1.00



