%chk=loop2.holoCaM-CaMKII.run24.water2.chk
%nprocshared=20
%mem=10GB
%nosave
#b3lyp/svp scf=(tight,noincore,xqc) Test 
#IOP(5/87=12) Density=Current Pop=(MK,readradii) iop(6/33=2) iop(6/42=6)

loop2.holoCaM-CaMKII.run24.water2 

   -2  1 
   C     74.91000000    61.19000000    11.75000000
   C     76.04000000    61.10000000    10.73000000
   O     77.09000000    61.72000000    10.86000000
   H     74.01200000    60.73100000    11.33800000
   H     75.20000000    60.66700000    12.66100000
   H     74.71000000    62.23700000    11.98000000
   N     75.81000000    60.29000000     9.69000000
   C     76.80000000    60.19000000     8.64000000
   C     76.93000000    61.44000000     7.78000000
   O     76.00000000    62.23000000     7.65000000
   C     76.31000000    59.07000000     7.72000000
   C     77.39000000    58.64000000     6.73000000
   O     78.57000000    58.67000000     7.14000000
   O     77.00000000    58.28000000     5.60000000
   H     74.86000000    59.97000000     9.59000000
   H     77.77000000    59.85000000     9.02000000
   H     75.40000000    59.29000000     7.17000000
   H     76.10000000    58.25000000     8.41000000
   N     78.10000000    61.46000000     7.13000000
   C     78.38000000    62.37000000     6.04000000
   C     79.37000000    61.91000000     4.98000000
   O     79.93000000    62.66000000     4.19000000
   C     78.77000000    63.71000000     6.66000000
   H     78.82000000    60.87000000     7.52000000
   H     77.44000000    62.45000000     5.50000000
   H     77.91000000    64.26000000     7.05000000
   H     79.60000000    63.58000000     7.37000000
   H     79.15000000    64.36000000     5.87000000
   N     79.57000000    60.59000000     4.95000000
   C     80.64000000    59.97000000     4.19000000
   C     80.30000000    58.64000000     3.52000000
   O     80.93000000    58.27000000     2.54000000
   C     81.89000000    59.90000000     5.05000000
   C     81.81000000    59.01000000     6.27000000
   O     81.28000000    57.87000000     6.21000000
   O     82.08000000    59.50000000     7.39000000
   H     79.17000000    60.05000000     5.70000000
   H     80.81000000    60.64000000     3.35000000
   H     82.23000000    60.90000000     5.33000000
   H     82.68000000    59.53000000     4.39000000
   N     79.20000000    57.99000000     3.91000000
   C     78.57000000    56.90000000     3.19000000
   C     79.24000000    55.59000000     3.58000000
   O     78.91000000    54.60000000     2.94000000
   H     78.80000000    58.26000000     4.80000000
   H     78.64000000    57.09000000     2.12000000
   H     77.53000000    56.96000000     3.49000000
   N     80.20000000    55.54000000     4.50000000
   C     81.04000000    54.38000000     4.71000000
   C     80.35000000    53.21000000     5.40000000
   O     81.01000000    52.22000000     5.72000000
   C     82.40000000    54.80000000     5.27000000
   C     82.46000000    55.21000000     6.73000000
   N     83.51000000    55.91000000     7.17000000
   O     81.45000000    55.19000000     7.44000000
   H     80.43000000    56.42000000     4.95000000
   H     81.36000000    53.86000000     3.81000000
   H     82.75000000    55.57000000     4.58000000
   H     83.12000000    53.99000000     5.14000000
   H     84.29000000    56.11000000     6.57000000
   H     83.54000000    56.05000000     8.17000000
   N     79.06000000    53.27000000     5.71000000
   C     78.25000000    52.24000000     6.33000000
   C     78.71000000    51.78000000     7.71000000
   O     78.38000000    50.70000000     8.19000000
   H     78.50000000    54.07000000     5.44000000
   H     78.43000000    51.32000000     5.77000000
   H     77.17000000    52.39000000     6.33000000
   N     79.55000000    52.63000000     8.31000000
   C     79.94000000    52.48000000     9.69000000
   C     79.85000000    53.82000000    10.40000000
   O     80.06000000    54.88000000     9.81000000
   C     81.37000000    51.95000000     9.76000000
   C     81.60000000    50.48000000     9.44000000
   O     82.32000000    52.65000000     8.98000000
   H     79.70000000    53.54000000     7.91000000
   H     79.34000000    51.76000000    10.25000000
   H     81.68000000    52.12000000    10.79000000
   H     82.21000000    53.59000000     9.13000000
   H     81.17000000    49.85000000    10.22000000
   H     81.23000000    50.25000000     8.44000000
   H     82.68000000    50.31000000     9.47000000
   N     79.63000000    53.79000000    11.72000000
   C     79.95000000    54.97000000    12.50000000
   C     81.43000000    55.02000000    12.84000000
   O     82.07000000    54.02000000    13.14000000
   C     78.93000000    55.01000000    13.64000000
   C     77.52000000    55.44000000    13.23000000
   C     79.50000000    55.84000000    14.79000000
   C     77.44000000    56.94000000    12.95000000
   H     79.39000000    52.93000000    12.19000000
   H     79.78000000    55.88000000    11.93000000
   H     78.91000000    54.01000000    14.07000000
   H     76.73000000    55.19000000    13.94000000
   H     77.37000000    54.91000000    12.30000000
   H     78.72000000    56.02000000    15.53000000
   H     80.32000000    55.21000000    15.14000000
   H     79.84000000    56.82000000    14.45000000
   H     77.69000000    57.44000000    13.88000000
   H     78.05000000    57.27000000    12.11000000
   H     76.40000000    57.17000000    12.76000000
   N     82.06000000    56.18000000    12.65000000
   C     83.44000000    56.48000000    12.95000000
   C     83.56000000    57.24000000    14.26000000
   O     82.59000000    57.85000000    14.69000000
   C     84.05000000    57.24000000    11.77000000
   C     83.79000000    56.82000000    10.33000000
   O     82.80000000    57.38000000     9.81000000
   O     84.56000000    55.99000000     9.81000000
   H     81.48000000    56.95000000    12.35000000
   H     83.99000000    55.56000000    13.16000000
   H     85.13000000    57.24000000    11.89000000
   H     83.75000000    58.29000000    11.87000000
   N     84.71000000    57.31000000    14.94000000
   C     84.86000000    58.10000000    16.14000000
   C     84.54000000    59.59000000    16.12000000
   O     84.01000000    60.00000000    17.15000000
   C     86.23000000    57.87000000    16.78000000
   C     86.46000000    58.42000000    18.17000000
   C     87.11000000    59.65000000    18.39000000
   C     86.13000000    57.66000000    19.29000000
   C     87.45000000    60.13000000    19.66000000
   C     86.47000000    58.08000000    20.58000000
   C     87.15000000    59.29000000    20.74000000
   H     85.55000000    57.00000000    14.47000000
   H     84.05000000    57.80000000    16.80000000
   H     87.03000000    58.21000000    16.13000000
   H     86.44000000    56.80000000    16.86000000
   H     87.26000000    60.32000000    17.55000000
   H     85.54000000    56.77000000    19.17000000
   H     88.03000000    61.04000000    19.75000000
   H     86.27000000    57.45000000    21.44000000
   H     87.42000000    59.66000000    21.72000000
   N     84.73000000    60.38000000    15.06000000
   C     84.25000000    61.75000000    15.07000000
   C     82.74000000    61.91000000    14.97000000
   O     82.20000000    62.99000000    15.19000000
   C     85.12000000    62.43000000    14.02000000
   C     86.35000000    61.52000000    13.89000000
   C     85.76000000    60.12000000    14.07000000
   H     84.67000000    62.15000000    15.99000000
   H     84.53000000    62.41000000    13.11000000
   H     85.37000000    63.43000000    14.38000000
   H     86.81000000    61.67000000    12.92000000
   H     87.09000000    61.71000000    14.67000000
   H     85.34000000    59.67000000    13.17000000
   H     86.56000000    59.48000000    14.44000000
   N     82.07000000    60.86000000    14.51000000
   C     80.62000000    60.80000000    14.45000000
   C     80.05000000    60.33000000    15.77000000
   O     79.08000000    60.95000000    16.21000000
   C     80.20000000    59.87000000    13.32000000
   C     80.76000000    60.22000000    11.94000000
   C     80.23000000    59.41000000    10.77000000
   O     79.97000000    59.84000000     9.63000000
   O     80.05000000    58.18000000    10.91000000
   H     82.61000000    60.01000000    14.40000000
   H     80.16000000    61.76000000    14.20000000
   H     79.11000000    59.91000000    13.32000000
   H     80.48000000    58.83000000    13.50000000
   H     81.84000000    60.08000000    12.03000000
   H     80.40000000    61.23000000    11.74000000
   N     80.67000000    59.35000000    16.44000000
   C     80.38000000    59.01000000    17.82000000
   H     79.34000000    58.69400000    17.90500000
   H     81.03300000    58.19800000    18.14000000
   H     80.54700000    59.88200000    18.45200000
   H     81.41000000    58.80000000    16.03000000
  Ca     80.46000000    57.27000000     8.47000000
   O     78.11000000    56.86000000     9.71000000
   H     78.62000000    57.47000000    10.25000000
   H     77.20000000    57.08000000     9.90000000
   O     78.48000000    55.80000000     7.39000000
   H     77.80000000    55.84000000     6.72000000
   H     78.02000000    55.96000000     8.21000000

Ca 1.00



