%chk=loop1.apoCaM-CA-Ng.Init293.run45.water5.chk
%nprocshared=20
%mem=10GB
%nosave
#b3lyp/svp scf=(tight,noincore,xqc) Test 
#IOP(5/87=12) Density=Current Pop=(MK,readradii) iop(6/33=2) iop(6/42=6)

loop1.apoCaM-CA-Ng.Init293.run45.water5 

   0  1 
   C     45.98000000    73.27000000    25.25000000
   C     46.04000000    72.18000000    26.30000000
   O     46.99000000    71.40000000    26.31000000
   H     45.65200000    74.20100000    25.71200000
   H     46.96900000    73.41000000    24.81400000
   H     45.27500000    72.98500000    24.46900000
   N     45.03000000    72.05000000    27.17000000
   C     44.88000000    70.99000000    28.15000000
   C     44.69000000    69.58000000    27.62000000
   O     44.72000000    68.60000000    28.36000000
   C     43.79000000    71.39000000    29.15000000
   C     42.44000000    71.73000000    28.52000000
   O     42.36000000    72.75000000    27.81000000
   O     41.42000000    71.06000000    28.78000000
   H     44.19000000    72.59000000    27.07000000
   H     45.86000000    71.07000000    28.63000000
   H     44.12000000    72.32000000    29.62000000
   H     43.69000000    70.70000000    29.98000000
   N     44.50000000    69.43000000    26.31000000
   C     44.09000000    68.19000000    25.68000000
   C     45.27000000    67.29000000    25.34000000
   O     46.19000000    67.72000000    24.65000000
   C     43.32000000    68.58000000    24.42000000
   C     43.07000000    67.40000000    23.49000000
   C     42.55000000    67.83000000    22.12000000
   C     41.63000000    66.81000000    21.45000000
   N     42.36000000    65.64000000    20.93000000
   H     44.47000000    70.32000000    25.83000000
   H     43.34000000    67.67000000    26.28000000
   H     43.91000000    69.36000000    23.95000000
   H     42.37000000    69.06000000    24.68000000
   H     42.31000000    66.81000000    23.99000000
   H     43.92000000    66.77000000    23.25000000
   H     43.32000000    68.24000000    21.47000000
   H     41.92000000    68.69000000    22.31000000
   H     41.18000000    67.29000000    20.58000000
   H     40.83000000    66.45000000    22.09000000
   H     42.65000000    65.04000000    21.70000000
   H     41.65000000    65.17000000    20.38000000
   H     43.19000000    65.87000000    20.40000000
   N     45.37000000    66.07000000    25.87000000
   C     44.63000000    65.43000000    26.93000000
   C     45.55000000    64.76000000    27.94000000
   O     45.18000000    63.84000000    28.66000000
   C     43.47000000    64.58000000    26.41000000
   C     43.97000000    63.42000000    25.57000000
   O     45.17000000    63.17000000    25.33000000
   O     43.09000000    62.76000000    24.97000000
   H     46.18000000    65.56000000    25.55000000
   H     44.12000000    66.23000000    27.48000000
   H     42.97000000    65.18000000    25.65000000
   H     42.88000000    64.18000000    27.23000000
   N     46.79000000    65.24000000    28.11000000
   C     47.54000000    66.40000000    27.68000000
   C     48.83000000    66.73000000    28.43000000
   O     49.26000000    65.79000000    29.10000000
   H     47.30000000    64.73000000    28.81000000
   H     46.92000000    67.30000000    27.69000000
   H     47.95000000    66.23000000    26.69000000
   N     49.56000000    67.80000000    28.10000000
   C     49.10000000    69.05000000    27.53000000
   C     49.80000000    70.28000000    28.08000000
   O     50.81000000    70.27000000    28.78000000
   C     49.05000000    68.95000000    26.01000000
   C     50.20000000    68.19000000    25.38000000
   O     49.85000000    67.27000000    24.60000000
   O     51.41000000    68.45000000    25.57000000
   H     50.43000000    67.99000000    28.59000000
   H     48.06000000    69.16000000    27.84000000
   H     48.99000000    69.92000000    25.52000000
   H     48.15000000    68.40000000    25.73000000
   N     49.12000000    71.42000000    28.02000000
   C     49.62000000    72.70000000    28.47000000
   C     50.88000000    73.21000000    27.77000000
   O     51.08000000    74.42000000    27.81000000
   H     48.27000000    71.51000000    27.48000000
   H     49.71000000    72.69000000    29.55000000
   H     48.83000000    73.41000000    28.23000000
   N     51.73000000    72.38000000    27.16000000
   C     52.94000000    72.74000000    26.45000000
   C     52.79000000    72.48000000    24.96000000
   O     52.47000000    71.38000000    24.52000000
   C     54.19000000    72.00000000    26.91000000
   C     54.37000000    72.03000000    28.42000000
   O     55.28000000    72.76000000    26.45000000
   H     51.53000000    71.39000000    27.21000000
   H     53.05000000    73.81000000    26.65000000
   H     54.16000000    70.96000000    26.56000000
   H     55.55000000    72.57000000    25.55000000
   H     54.31000000    73.06000000    28.77000000
   H     53.53000000    71.49000000    28.86000000
   H     55.31000000    71.53000000    28.68000000
   N     53.05000000    73.47000000    24.11000000
   C     52.68000000    73.52000000    22.71000000
   C     53.81000000    73.94000000    21.78000000
   O     54.29000000    75.07000000    21.81000000
   C     51.42000000    74.36000000    22.52000000
   C     51.08000000    74.18000000    21.04000000
   C     51.49000000    75.80000000    23.00000000
   C     49.59000000    74.43000000    20.80000000
   H     53.36000000    74.36000000    24.50000000
   H     52.36000000    72.53000000    22.42000000
   H     50.68000000    73.84000000    23.13000000
   H     51.29000000    73.15000000    20.74000000
   H     51.63000000    74.91000000    20.45000000
   H     50.55000000    76.33000000    22.81000000
   H     51.76000000    75.79000000    24.05000000
   H     52.29000000    76.35000000    22.50000000
   H     49.20000000    75.44000000    20.95000000
   H     49.29000000    74.15000000    19.80000000
   H     48.94000000    73.78000000    21.39000000
   N     54.33000000    73.02000000    20.96000000
   C     55.37000000    73.28000000    19.99000000
   C     54.99000000    72.75000000    18.62000000
   O     55.67000000    73.24000000    17.71000000
   C     56.70000000    72.72000000    20.50000000
   C     56.76000000    71.19000000    20.58000000
   O     56.94000000    73.15000000    21.81000000
   H     53.98000000    72.08000000    21.12000000
   H     55.50000000    74.36000000    19.90000000
   H     57.50000000    73.06000000    19.84000000
   H     57.13000000    74.09000000    21.88000000
   H     57.73000000    70.89000000    20.96000000
   H     55.94000000    70.81000000    21.19000000
   H     56.68000000    70.82000000    19.56000000
   N     53.99000000    71.88000000    18.46000000
   C     53.54000000    71.38000000    17.19000000
   C     54.55000000    70.51000000    16.45000000
   O     55.76000000    70.76000000    16.46000000
   C     52.93000000    72.52000000    16.38000000
   C     51.80000000    73.32000000    17.02000000
   O     52.47000000    72.13000000    15.10000000
   H     53.56000000    71.50000000    19.30000000
   H     52.72000000    70.69000000    17.42000000
   H     53.72000000    73.24000000    16.16000000
   H     52.44000000    72.92000000    14.56000000
   H     50.90000000    72.79000000    17.32000000
   H     52.24000000    73.88000000    17.85000000
   H     51.51000000    74.03000000    16.25000000
   N     54.02000000    69.44000000    15.85000000
   C     54.79000000    68.36000000    15.27000000
   C     54.29000000    66.94000000    15.45000000
   O     55.19000000    66.11000000    15.38000000
   C     55.18000000    68.72000000    13.84000000
   C     56.59000000    69.19000000    13.52000000
   C     56.92000000    68.85000000    12.07000000
   C     58.30000000    68.90000000    11.43000000
   N     58.58000000    70.32000000    11.14000000
   H     53.02000000    69.38000000    15.86000000
   H     55.72000000    68.33000000    15.84000000
   H     54.48000000    69.47000000    13.48000000
   H     55.11000000    67.76000000    13.31000000
   H     57.25000000    68.67000000    14.21000000
   H     56.77000000    70.27000000    13.56000000
   H     56.19000000    69.38000000    11.45000000
   H     56.61000000    67.82000000    11.89000000
   H     58.30000000    68.40000000    10.46000000
   H     58.99000000    68.45000000    12.14000000
   H     59.17000000    70.28000000    10.33000000
   H     57.74000000    70.73000000    10.77000000
   H     58.99000000    70.83000000    11.91000000
   N     53.08000000    66.55000000    15.85000000
   C     51.86000000    67.27000000    16.19000000
   C     51.34000000    68.24000000    15.14000000
   O     50.97000000    69.35000000    15.54000000
   C     51.87000000    67.72000000    17.65000000
   C     52.12000000    66.65000000    18.71000000
   C     52.00000000    67.21000000    20.12000000
   O     51.02000000    66.92000000    20.84000000
   O     52.92000000    67.91000000    20.59000000
   H     53.00000000    65.55000000    15.91000000
   H     51.11000000    66.48000000    16.16000000
   H     50.93000000    68.26000000    17.76000000
   H     52.67000000    68.46000000    17.72000000
   H     53.12000000    66.29000000    18.45000000
   H     51.40000000    65.86000000    18.49000000
   N     51.42000000    67.94000000    13.85000000
   C     50.85000000    68.65000000    12.72000000
   H     49.95100000    69.17700000    13.03900000
   H     51.57600000    69.36800000    12.33800000
   H     50.59400000    67.93900000    11.93500000
   H     51.70000000    66.98000000    13.70000000
  Ca     52.35000000    67.40000000    23.21000000
   O     54.84000000    66.70000000    24.02000000
   H     54.97000000    67.21000000    24.83000000
   H     55.57000000    66.08000000    24.01000000
   O     50.98000000    69.69000000    22.94000000
   H     50.21000000    70.03000000    22.49000000
   H     51.33000000    70.45000000    23.41000000
   O     54.01000000    69.66000000    23.45000000
   H     54.87000000    69.96000000    23.72000000
   H     53.42000000    70.39000000    23.67000000
   O     53.24000000    65.04000000    21.99000000
   H     53.11000000    64.25000000    22.51000000
   H     53.91000000    64.81000000    21.35000000
   O     52.23000000    65.30000000    24.91000000
   H     51.93000000    65.14000000    25.81000000
   H     52.86000000    64.60000000    24.74000000

Ca 1.00



