%chk=loop1.holoCaM.run29.water2.chk
%nprocshared=20
%mem=10GB
%nosave
#b3lyp/svp scf=(tight,noincore,xqc) Test 
#IOP(5/87=12) Density=Current Pop=(MK,readradii) iop(6/33=2) iop(6/42=6)

loop1.holoCaM.run29.water2 

   0  1 
   C     50.54000000    70.65000000   108.34000000
   C     49.98000000    70.50000000   109.74000000
   O     48.76000000    70.55000000   109.86000000
   H     51.56200000    70.27100000   108.31500000
   H     49.92600000    70.08400000   107.64000000
   H     50.53700000    71.70300000   108.05800000
   N     50.79000000    70.40000000   110.80000000
   C     50.40000000    70.51000000   112.19000000
   C     49.89000000    71.93000000   112.34000000
   O     50.70000000    72.85000000   112.34000000
   C     51.45000000    70.10000000   113.22000000
   C     51.11000000    70.37000000   114.68000000
   O     52.02000000    70.73000000   115.45000000
   O     49.92000000    70.24000000   115.05000000
   H     51.79000000    70.37000000   110.65000000
   H     49.55000000    69.86000000   112.39000000
   H     52.44000000    70.52000000   113.04000000
   H     51.65000000    69.04000000   113.09000000
   N     48.59000000    72.20000000   112.47000000
   C     48.00000000    73.51000000   112.63000000
   C     48.09000000    74.17000000   114.00000000
   O     48.12000000    75.39000000   114.13000000
   C     46.57000000    73.53000000   112.08000000
   C     46.44000000    72.91000000   110.69000000
   C     47.42000000    73.54000000   109.70000000
   C     47.00000000    72.90000000   108.38000000
   N     47.96000000    73.39000000   107.37000000
   H     47.93000000    71.43000000   112.46000000
   H     48.60000000    74.16000000   112.00000000
   H     46.29000000    74.57000000   111.92000000
   H     45.76000000    73.04000000   112.62000000
   H     45.48000000    73.11000000   110.22000000
   H     46.58000000    71.83000000   110.67000000
   H     48.48000000    73.48000000   109.96000000
   H     47.19000000    74.60000000   109.77000000
   H     46.02000000    73.32000000   108.17000000
   H     46.99000000    71.81000000   108.39000000
   H     47.56000000    74.03000000   106.70000000
   H     48.87000000    73.64000000   107.74000000
   H     48.15000000    72.60000000   106.77000000
   N     48.07000000    73.42000000   115.11000000
   C     47.89000000    73.94000000   116.45000000
   C     49.05000000    73.66000000   117.39000000
   O     48.91000000    73.91000000   118.59000000
   C     46.59000000    73.50000000   117.12000000
   C     46.28000000    72.01000000   117.05000000
   O     47.19000000    71.28000000   116.61000000
   O     45.20000000    71.50000000   117.40000000
   H     47.96000000    72.42000000   115.01000000
   H     47.79000000    75.03000000   116.42000000
   H     45.82000000    74.07000000   116.59000000
   H     46.56000000    73.88000000   118.14000000
   N     50.22000000    73.27000000   116.88000000
   C     51.45000000    73.26000000   117.65000000
   C     51.43000000    72.29000000   118.82000000
   O     51.80000000    72.61000000   119.95000000
   H     50.27000000    72.91000000   115.93000000
   H     51.58000000    74.21000000   118.17000000
   H     52.24000000    73.05000000   116.93000000
   N     51.25000000    71.00000000   118.52000000
   C     51.39000000    69.86000000   119.41000000
   C     52.41000000    68.85000000   118.91000000
   O     52.79000000    67.91000000   119.60000000
   C     50.04000000    69.22000000   119.71000000
   C     49.29000000    68.82000000   118.44000000
   O     48.05000000    68.75000000   118.39000000
   O     49.98000000    68.50000000   117.45000000
   H     50.96000000    70.80000000   117.57000000
   H     51.83000000    70.24000000   120.33000000
   H     49.41000000    70.05000000   120.02000000
   H     50.11000000    68.42000000   120.45000000
   N     52.99000000    69.13000000   117.74000000
   C     53.92000000    68.33000000   116.96000000
   C     53.33000000    66.99000000   116.55000000
   O     54.16000000    66.09000000   116.44000000
   H     52.73000000    70.04000000   117.39000000
   H     54.88000000    68.23000000   117.46000000
   H     54.24000000    68.86000000   116.06000000
   N     52.04000000    66.92000000   116.21000000
   C     51.54000000    65.86000000   115.36000000
   C     50.42000000    66.28000000   114.42000000
   O     49.70000000    67.25000000   114.66000000
   C     50.94000000    64.77000000   116.24000000
   C     51.99000000    64.07000000   117.09000000
   O     50.01000000    65.34000000   117.15000000
   H     51.51000000    67.77000000   116.35000000
   H     52.39000000    65.50000000   114.79000000
   H     50.43000000    64.06000000   115.59000000
   H     50.30000000    66.23000000   117.33000000
   H     52.15000000    64.55000000   118.06000000
   H     51.66000000    63.06000000   117.30000000
   H     52.97000000    64.11000000   116.62000000
   N     50.32000000    65.49000000   113.36000000
   C     49.20000000    65.53000000   112.44000000
   C     48.07000000    64.58000000   112.83000000
   O     48.31000000    63.41000000   113.11000000
   C     49.59000000    65.42000000   110.97000000
   C     51.06000000    65.76000000   110.72000000
   C     48.68000000    66.28000000   110.09000000
   C     51.56000000    65.61000000   109.29000000
   H     51.09000000    64.86000000   113.15000000
   H     48.94000000    66.57000000   112.64000000
   H     49.40000000    64.41000000   110.61000000
   H     51.76000000    65.07000000   111.19000000
   H     51.23000000    66.77000000   111.08000000
   H     47.66000000    65.91000000   110.02000000
   H     48.60000000    67.32000000   110.41000000
   H     48.88000000    66.22000000   109.02000000
   H     51.03000000    66.31000000   108.64000000
   H     52.64000000    65.66000000   109.21000000
   H     51.26000000    64.65000000   108.86000000
   N     46.87000000    65.14000000   112.93000000
   C     45.59000000    64.51000000   113.19000000
   C     44.52000000    64.59000000   112.11000000
   O     44.56000000    65.39000000   111.17000000
   C     45.09000000    64.79000000   114.60000000
   C     44.20000000    66.01000000   114.82000000
   O     44.43000000    63.69000000   115.20000000
   H     46.82000000    66.14000000   112.74000000
   H     45.67000000    63.43000000   113.23000000
   H     46.00000000    64.95000000   115.19000000
   H     44.22000000    63.94000000   116.10000000
   H     44.64000000    66.93000000   114.45000000
   H     43.26000000    65.84000000   114.29000000
   H     44.07000000    66.13000000   115.90000000
   N     43.50000000    63.75000000   112.28000000
   C     42.33000000    63.52000000   111.46000000
   C     41.63000000    64.79000000   111.01000000
   O     41.09000000    64.75000000   109.91000000
   C     41.26000000    62.76000000   112.25000000
   C     41.79000000    61.45000000   112.84000000
   O     40.88000000    63.51000000   113.38000000
   H     43.51000000    63.21000000   113.14000000
   H     42.63000000    62.95000000   110.58000000
   H     40.35000000    62.58000000   111.68000000
   H     39.93000000    63.61000000   113.34000000
   H     42.54000000    61.66000000   113.60000000
   H     40.96000000    61.10000000   113.45000000
   H     42.27000000    60.83000000   112.09000000
   N     41.71000000    65.91000000   111.74000000
   C     41.11000000    67.21000000   111.51000000
   C     42.03000000    68.09000000   110.67000000
   O     41.52000000    69.09000000   110.16000000
   C     40.66000000    67.74000000   112.86000000
   C     39.48000000    66.98000000   113.47000000
   C     38.85000000    67.63000000   114.69000000
   C     37.71000000    66.72000000   115.14000000
   N     36.52000000    66.78000000   114.28000000
   H     42.21000000    65.80000000   112.61000000
   H     40.25000000    67.09000000   110.84000000
   H     40.44000000    68.78000000   112.60000000
   H     41.48000000    67.82000000   113.57000000
   H     39.81000000    66.01000000   113.85000000
   H     38.81000000    66.81000000   112.63000000
   H     38.46000000    68.59000000   114.34000000
   H     39.54000000    67.86000000   115.51000000
   H     37.50000000    67.00000000   116.17000000
   H     38.15000000    65.73000000   115.10000000
   H     36.76000000    66.53000000   113.34000000
   H     35.77000000    66.20000000   114.63000000
   H     36.21000000    67.74000000   114.19000000
   N     43.27000000    67.70000000   110.38000000
   C     44.33000000    68.47000000   109.76000000
   C     44.89000000    67.71000000   108.57000000
   O     45.44000000    68.31000000   107.65000000
   C     45.46000000    68.65000000   110.77000000
   C     45.18000000    69.31000000   112.12000000
   C     46.32000000    69.21000000   113.11000000
   O     46.75000000    68.08000000   113.45000000
   O     46.73000000    70.23000000   113.71000000
   H     43.61000000    66.82000000   110.73000000
   H     43.92000000    69.44000000   109.48000000
   H     46.26000000    69.24000000   110.31000000
   H     45.85000000    67.64000000   110.89000000
   H     44.24000000    68.90000000   112.49000000
   H     44.94000000    70.37000000   112.02000000
   N     44.92000000    66.38000000   108.56000000
   C     45.73000000    65.66000000   107.60000000
   H     46.70400000    65.44200000   108.03800000
   H     45.23500000    64.72600000   107.33300000
   H     45.86300000    66.27000000   106.70600000
   H     44.59000000    65.95000000   109.42000000
  Ca     47.92000000    68.96000000   115.78400000
   O     47.81000000    66.58000000   116.56400000
   H     48.59000000    66.11000000   116.88400000
   H     47.12000000    66.33000000   117.18400000
   O     45.19000000    68.94000000   116.72400000
   H     44.46000000    68.37000000   116.97400000
   H     44.97000000    69.79000000   117.10400000

Ca 1.00



