%chk=loop4.apoCaM-CA-Ng.Init293.run11.water3.chk
%nprocshared=20
%mem=10GB
%nosave
#b3lyp/svp scf=(tight,noincore,xqc) Test 
#IOP(5/87=12) Density=Current Pop=(MK,readradii) iop(6/33=2) iop(6/42=6)

loop4.apoCaM-CA-Ng.Init293.run11.water3 

   -3  1 
   C     41.69000000    53.79000000    29.77000000
   C     42.66000000    54.94000000    29.54000000
   O     43.52000000    55.23000000    30.36000000
   H     40.76500000    53.98100000    29.22500000
   H     42.13600000    52.86100000    29.41400000
   H     41.47300000    53.70400000    30.83500000
   N     42.54000000    55.59000000    28.38000000
   C     43.08000000    56.86000000    27.93000000
   C     44.58000000    56.93000000    27.71000000
   O     45.41000000    56.46000000    28.49000000
   C     42.60000000    58.08000000    28.72000000
   C     42.93000000    58.09000000    30.21000000
   O     42.05000000    58.40000000    31.04000000
   O     44.08000000    57.85000000    30.64000000
   H     41.78000000    55.21000000    27.84000000
   H     42.66000000    57.10000000    26.96000000
   H     41.53000000    58.17000000    28.55000000
   H     42.88000000    59.00000000    28.21000000
   N     44.88000000    57.44000000    26.52000000
   C     46.18000000    57.50000000    25.87000000
   C     47.38000000    58.07000000    26.61000000
   O     48.46000000    58.14000000    26.02000000
   C     46.48000000    56.17000000    25.18000000
   C     45.38000000    55.97000000    24.15000000
   C     46.72000000    54.98000000    26.11000000
   C     45.63000000    54.84000000    23.16000000
   H     44.13000000    57.84000000    25.98000000
   H     45.99000000    58.30000000    25.16000000
   H     47.37000000    56.32000000    24.56000000
   H     45.21000000    56.89000000    23.59000000
   H     44.43000000    55.73000000    24.63000000
   H     47.47000000    55.22000000    26.86000000
   H     45.83000000    54.59000000    26.60000000
   H     47.16000000    54.17000000    25.53000000
   H     44.74000000    54.72000000    22.54000000
   H     46.51000000    54.95000000    22.52000000
   H     45.81000000    53.98000000    23.81000000
   N     47.23000000    58.64000000    27.80000000
   C     48.23000000    59.35000000    28.58000000
   C     47.99000000    58.92000000    30.02000000
   O     46.92000000    58.43000000    30.37000000
   C     48.09000000    60.86000000    28.40000000
   C     46.67000000    61.38000000    28.63000000
   O     46.22000000    61.63000000    29.77000000
   O     46.04000000    61.65000000    27.59000000
   H     46.39000000    58.47000000    28.33000000
   H     49.23000000    59.07000000    28.26000000
   H     48.39000000    61.19000000    27.40000000
   H     48.65000000    61.32000000    29.21000000
   N     48.87000000    59.02000000    31.02000000
   C     50.23000000    59.52000000    31.03000000
   C     51.10000000    58.94000000    32.14000000
   O     50.59000000    58.15000000    32.94000000
   H     48.56000000    58.66000000    31.91000000
   H     50.26000000    60.59000000    31.22000000
   H     50.75000000    59.42000000    30.08000000
   N     52.40000000    59.20000000    32.25000000
   C     53.24000000    60.09000000    31.47000000
   C     54.51000000    59.32000000    31.14000000
   O     54.93000000    58.42000000    31.86000000
   C     53.50000000    61.39000000    32.22000000
   C     53.85000000    61.16000000    33.68000000
   O     55.05000000    61.24000000    34.01000000
   O     52.96000000    61.09000000    34.55000000
   H     52.89000000    58.54000000    32.84000000
   H     52.68000000    60.40000000    30.59000000
   H     52.64000000    62.06000000    32.14000000
   H     54.36000000    61.90000000    31.79000000
   N     55.22000000    59.62000000    30.04000000
   C     55.28000000    60.75000000    29.13000000
   C     55.18000000    60.40000000    27.66000000
   O     55.41000000    61.27000000    26.82000000
   H     55.94000000    58.93000000    29.90000000
   H     56.18000000    61.36000000    29.26000000
   H     54.39000000    61.36000000    29.29000000
   N     54.96000000    59.12000000    27.36000000
   C     54.73000000    58.60000000    26.03000000
   C     53.77000000    57.42000000    26.04000000
   O     53.04000000    57.26000000    25.06000000
   C     56.07000000    58.26000000    25.37000000
   C     56.80000000    57.03000000    25.89000000
   C     57.91000000    56.62000000    24.93000000
   N     58.19000000    55.34000000    24.67000000
   O     58.60000000    57.47000000    24.38000000
   H     55.05000000    58.44000000    28.10000000
   H     54.30000000    59.45000000    25.50000000
   H     56.75000000    59.09000000    25.48000000
   H     55.87000000    58.11000000    24.30000000
   H     56.06000000    56.23000000    25.96000000
   H     57.29000000    57.16000000    26.86000000
   H     57.75000000    54.68000000    25.29000000
   H     58.92000000    55.08000000    24.01000000
   N     53.69000000    56.68000000    27.15000000
   C     52.73000000    55.64000000    27.44000000
   C     53.33000000    54.24000000    27.40000000
   O     54.50000000    53.96000000    27.67000000
   C     52.01000000    55.81000000    28.77000000
   C     51.02000000    56.95000000    28.51000000
   C     52.81000000    56.32000000    29.96000000
   H     54.40000000    56.75000000    27.87000000
   H     51.92000000    55.64000000    26.71000000
   H     51.48000000    54.88000000    28.99000000
   H     50.42000000    56.73000000    27.63000000
   H     50.32000000    56.88000000    29.34000000
   H     51.46000000    57.94000000    28.47000000
   H     52.09000000    56.59000000    30.74000000
   H     53.54000000    55.60000000    30.33000000
   H     53.39000000    57.18000000    29.64000000
   N     52.46000000    53.27000000    27.10000000
   C     52.56000000    51.84000000    27.28000000
   C     52.74000000    51.33000000    28.70000000
   O     51.93000000    50.52000000    29.14000000
   C     53.51000000    51.23000000    26.25000000
   C     53.82000000    49.79000000    26.62000000
   N     53.45000000    48.85000000    25.75000000
   O     54.53000000    49.53000000    27.60000000
   H     51.54000000    53.53000000    26.77000000
   H     51.52000000    51.55000000    27.10000000
   H     54.48000000    51.74000000    26.26000000
   H     53.07000000    51.20000000    25.26000000
   H     52.64000000    49.04000000    25.17000000
   H     53.88000000    47.95000000    25.91000000
   N     53.74000000    51.85000000    29.42000000
   C     53.78000000    51.61000000    30.85000000
   C     52.46000000    51.85000000    31.56000000
   O     51.71000000    52.79000000    31.29000000
   C     54.92000000    52.47000000    31.40000000
   C     55.07000000    52.41000000    32.90000000
   C     55.63000000    51.27000000    33.49000000
   C     54.56000000    53.41000000    33.73000000
   C     55.85000000    51.19000000    34.87000000
   C     54.75000000    53.31000000    35.11000000
   C     55.41000000    52.22000000    35.72000000
   O     55.58000000    52.13000000    37.07000000
   H     54.28000000    52.57000000    28.97000000
   H     54.05000000    50.60000000    31.15000000
   H     54.71000000    53.49000000    31.08000000
   H     55.89000000    52.19000000    31.00000000
   H     56.03000000    50.51000000    32.84000000
   H     53.99000000    54.26000000    33.37000000
   H     56.33000000    50.31000000    35.29000000
   H     54.31000000    54.10000000    35.70000000
   H     55.11000000    52.80000000    37.58000000
   N     52.09000000    50.91000000    32.43000000
   C     50.89000000    50.96000000    33.24000000
   C     49.51000000    51.04000000    32.58000000
   O     48.47000000    51.14000000    33.22000000
   C     51.13000000    51.95000000    34.37000000
   C     51.89000000    51.39000000    35.58000000
   C     50.98000000    50.90000000    36.69000000
   O     50.83000000    51.60000000    37.71000000
   O     50.38000000    49.82000000    36.46000000
   H     52.80000000    50.26000000    32.72000000
   H     50.89000000    49.98000000    33.71000000
   H     50.12000000    52.07000000    34.77000000
   H     51.53000000    52.90000000    34.03000000
   H     52.57000000    52.16000000    35.92000000
   H     52.63000000    50.64000000    35.30000000
   N     49.44000000    51.02000000    31.25000000
   C     48.20000000    51.15000000    30.52000000
   C     47.47000000    49.86000000    30.17000000
   O     46.52000000    49.80000000    29.40000000
   C     48.55000000    51.77000000    29.17000000
   C     48.96000000    53.24000000    29.16000000
   C     47.91000000    54.13000000    29.81000000
   O     48.21000000    55.14000000    30.48000000
   O     46.69000000    53.87000000    29.73000000
   H     50.30000000    51.04000000    30.73000000
   H     47.52000000    51.82000000    31.05000000
   H     47.63000000    51.78000000    28.58000000
   H     49.30000000    51.12000000    28.73000000
   H     49.09000000    53.50000000    28.11000000
   H     49.89000000    53.43000000    29.69000000
   N     47.85000000    48.75000000    30.82000000
   C     47.17000000    47.47000000    30.82000000
   H     46.21300000    47.56700000    30.30700000
   H     47.78400000    46.73200000    30.30500000
   H     46.99900000    47.14900000    31.84700000
   H     48.61000000    48.86000000    31.48000000
  Ca     45.92000000    55.98000000    31.01000000
   O     47.56000000    56.73000000    32.92000000
   H     48.41000000    56.31000000    32.97000000
   H     47.56000000    57.37000000    33.63000000
   O     44.61000000    55.99000000    33.33000000
   H     44.78000000    55.30000000    33.97000000
   H     43.65000000    56.05000000    33.29000000
   O     46.33000000    53.72000000    32.62000000
   H     47.21000000    53.35000000    32.54000000
   H     45.76000000    52.96000000    32.76000000

Ca 1.00



