%chk=loop4.apoCaM-CA-Ng.Init31.run89.water4.chk
%nprocshared=20
%mem=10GB
%nosave
#b3lyp/svp scf=(tight,noincore,xqc) Test 
#IOP(5/87=12) Density=Current Pop=(MK,readradii) iop(6/33=2) iop(6/42=6)

loop4.apoCaM-CA-Ng.Init31.run89.water4 

   -3  1 
   C     79.00000000    52.45000000    49.87000000
   C     79.62000000    53.30000000    48.77000000
   O     78.94000000    54.23000000    48.33000000
   H     77.99500000    52.14900000    49.57300000
   H     79.61100000    51.56200000    50.03200000
   H     78.94800000    53.02900000    50.79200000
   N     80.90000000    53.30000000    48.40000000
   C     82.12000000    52.74000000    48.95000000
   C     82.46000000    53.29000000    50.33000000
   O     82.69000000    52.47000000    51.22000000
   C     83.26000000    52.97000000    47.97000000
   C     84.51000000    52.16000000    48.29000000
   O     85.60000000    52.67000000    47.94000000
   O     84.49000000    51.06000000    48.89000000
   H     80.99000000    53.97000000    47.65000000
   H     82.04000000    51.66000000    49.09000000
   H     83.64000000    53.99000000    47.96000000
   H     82.87000000    52.73000000    46.99000000
   N     82.41000000    54.60000000    50.56000000
   C     82.62000000    55.04000000    51.93000000
   C     83.31000000    56.39000000    52.04000000
   O     83.93000000    56.71000000    53.04000000
   C     81.29000000    55.00000000    52.68000000
   C     81.37000000    55.35000000    54.16000000
   C     80.19000000    55.89000000    52.11000000
   C     80.12000000    55.16000000    55.01000000
   H     82.08000000    55.25000000    49.86000000
   H     83.32000000    54.38000000    52.44000000
   H     80.98000000    53.96000000    52.60000000
   H     81.69000000    56.38000000    54.29000000
   H     82.16000000    54.69000000    54.55000000
   H     80.37000000    56.07000000    51.05000000
   H     79.32000000    55.23000000    52.08000000
   H     79.93000000    56.79000000    52.66000000
   H     79.63000000    54.20000000    54.83000000
   H     80.42000000    55.28000000    56.05000000
   H     79.38000000    55.91000000    54.73000000
   N     83.22000000    57.26000000    51.02000000
   C     83.43000000    58.69000000    51.11000000
   C     84.71000000    59.11000000    50.41000000
   O     85.13000000    60.25000000    50.56000000
   C     82.27000000    59.45000000    50.47000000
   C     82.34000000    60.97000000    50.54000000
   O     82.58000000    61.51000000    51.64000000
   O     82.04000000    61.58000000    49.49000000
   H     82.72000000    56.94000000    50.20000000
   H     83.58000000    58.91000000    52.17000000
   H     81.44000000    59.20000000    51.14000000
   H     82.07000000    59.13000000    49.45000000
   N     85.36000000    58.23000000    49.65000000
   C     86.59000000    58.51000000    48.95000000
   C     86.61000000    59.56000000    47.84000000
   O     86.01000000    59.43000000    46.77000000
   H     84.87000000    57.35000000    49.52000000
   H     86.95000000    57.54000000    48.61000000
   H     87.26000000    58.81000000    49.76000000
   N     87.53000000    60.50000000    48.01000000
   C     87.99000000    61.42000000    46.98000000
   C     87.02000000    62.56000000    46.76000000
   O     86.09000000    62.83000000    47.52000000
   C     89.43000000    61.79000000    47.32000000
   C     90.31000000    60.66000000    47.86000000
   O     90.81000000    59.77000000    47.14000000
   O     90.48000000    60.67000000    49.10000000
   H     87.84000000    60.57000000    48.97000000
   H     88.04000000    60.81000000    46.08000000
   H     89.44000000    62.61000000    48.04000000
   H     89.98000000    62.20000000    46.48000000
   N     87.09000000    63.28000000    45.63000000
   C     88.21000000    63.38000000    44.72000000
   C     88.10000000    64.22000000    43.45000000
   O     87.64000000    65.35000000    43.47000000
   H     86.39000000    64.01000000    45.60000000
   H     88.49000000    62.36000000    44.47000000
   H     89.01000000    63.90000000    45.25000000
   N     88.80000000    63.86000000    42.37000000
   C     89.50000000    62.69000000    41.87000000
   C     88.63000000    61.45000000    41.86000000
   O     87.79000000    61.26000000    42.74000000
   C     90.83000000    62.42000000    42.56000000
   C     92.00000000    63.29000000    42.10000000
   C     91.91000000    64.76000000    42.48000000
   N     92.72000000    65.59000000    41.82000000
   O     91.24000000    65.22000000    43.40000000
   H     88.80000000    64.54000000    41.63000000
   H     89.65000000    62.92000000    40.81000000
   H     91.08000000    61.37000000    42.47000000
   H     90.53000000    62.62000000    43.59000000
   H     92.07000000    63.03000000    41.04000000
   H     92.94000000    63.02000000    42.58000000
   H     93.22000000    65.17000000    41.05000000
   H     92.82000000    66.57000000    42.04000000
   N     88.90000000    60.55000000    40.91000000
   C     88.24000000    59.27000000    40.79000000
   C     88.26000000    58.79000000    39.35000000
   O     89.00000000    59.24000000    38.48000000
   C     88.88000000    58.21000000    41.69000000
   C     88.45000000    58.28000000    43.15000000
   C     90.38000000    58.01000000    41.50000000
   H     89.57000000    60.77000000    40.19000000
   H     87.18000000    59.32000000    41.07000000
   H     88.55000000    57.22000000    41.41000000
   H     88.81000000    57.35000000    43.61000000
   H     88.82000000    59.17000000    43.65000000
   H     87.37000000    58.28000000    43.23000000
   H     91.13000000    58.62000000    42.01000000
   H     90.45000000    57.02000000    41.95000000
   H     90.60000000    58.01000000    40.44000000
   N     87.37000000    57.82000000    39.11000000
   C     87.01000000    57.18000000    37.87000000
   C     87.46000000    55.73000000    37.73000000
   O     87.47000000    55.27000000    36.59000000
   C     85.53000000    57.51000000    37.67000000
   C     85.04000000    57.22000000    36.26000000
   N     84.29000000    56.13000000    36.09000000
   O     85.42000000    57.82000000    35.25000000
   H     86.76000000    57.54000000    39.86000000
   H     87.59000000    57.77000000    37.16000000
   H     85.42000000    58.55000000    37.98000000
   H     84.86000000    56.97000000    38.34000000
   H     84.43000000    55.48000000    36.84000000
   H     84.06000000    55.85000000    35.15000000
   N     87.86000000    54.99000000    38.76000000
   C     88.24000000    53.60000000    38.66000000
   C     88.21000000    52.93000000    40.03000000
   O     88.13000000    53.67000000    41.01000000
   C     89.63000000    53.38000000    38.05000000
   C     90.73000000    54.05000000    38.84000000
   C     91.57000000    53.39000000    39.75000000
   C     91.05000000    55.36000000    38.48000000
   C     92.63000000    54.02000000    40.42000000
   C     92.18000000    55.97000000    39.05000000
   C     92.96000000    55.34000000    40.03000000
   O     94.10000000    55.99000000    40.41000000
   H     87.83000000    55.39000000    39.69000000
   H     87.56000000    53.07000000    37.98000000
   H     89.68000000    53.55000000    36.98000000
   H     89.88000000    52.33000000    38.17000000
   H     91.40000000    52.41000000    40.17000000
   H     90.42000000    55.85000000    37.75000000
   H     93.17000000    53.46000000    41.17000000
   H     92.47000000    56.96000000    38.72000000
   H     94.67000000    55.46000000    40.98000000
   N     88.20000000    51.61000000    40.18000000
   C     87.85000000    50.84000000    41.36000000
   C     86.34000000    50.67000000    41.40000000
   O     85.64000000    50.49000000    40.41000000
   C     88.54000000    49.48000000    41.32000000
   C     90.02000000    49.48000000    41.68000000
   C     90.60000000    48.07000000    41.66000000
   O     91.83000000    47.95000000    41.49000000
   O     89.91000000    47.06000000    41.95000000
   H     88.38000000    51.03000000    39.37000000
   H     88.20000000    51.36000000    42.25000000
   H     88.49000000    49.07000000    40.31000000
   H     88.00000000    48.90000000    42.07000000
   H     90.15000000    49.99000000    42.63000000
   H     90.58000000    50.02000000    40.92000000
   N     85.83000000    50.67000000    42.64000000
   C     84.39000000    50.60000000    42.77000000
   C     83.70000000    51.83000000    42.19000000
   O     84.29000000    52.90000000    42.12000000
   C     84.06000000    50.44000000    44.25000000
   C     84.22000000    48.99000000    44.69000000
   C     84.02000000    48.82000000    46.19000000
   O     82.82000000    48.86000000    46.55000000
   O     84.91000000    48.51000000    47.00000000
   H     86.48000000    50.71000000    43.42000000
   H     84.04000000    49.72000000    42.23000000
   H     83.03000000    50.67000000    44.53000000
   H     84.65000000    51.06000000    44.93000000
   H     85.15000000    48.54000000    44.35000000
   H     83.41000000    48.45000000    44.19000000
   N     82.42000000    51.64000000    41.87000000
   C     81.73000000    52.71000000    41.17000000
   H     80.80700000    52.95200000    41.69700000
   H     82.36900000    53.59200000    41.13400000
   H     81.49500000    52.38900000    40.15500000
   H     81.99000000    50.73000000    41.98000000
  Ca     83.85000000    48.50000000    49.44000000
   O     83.89000000    50.05000000    51.57000000
   H     83.67000000    50.98000000    51.56000000
   H     83.89000000    49.82000000    52.50000000
   O     84.39000000    46.76000000    51.31000000
   H     84.77000000    46.89000000    52.18000000
   H     83.45000000    46.67000000    51.48000000
   O     86.37000000    48.85000000    50.18000000
   H     87.05000000    48.31000000    50.58000000
   H     86.64000000    49.75000000    50.37000000
   O     83.58000000    45.90000000    48.59000000
   H     82.87000000    45.42000000    49.01000000
   H     84.34000000    45.33000000    48.70000000

Ca 1.00



