%chk=loop2.holoCaM.run96.water1.chk
%nprocshared=20
%mem=10GB
%nosave
#b3lyp/svp scf=(tight,noincore,xqc) Test 
#IOP(5/87=12) Density=Current Pop=(MK,readradii) iop(6/33=2) iop(6/42=6)

loop2.holoCaM.run96.water1 

   -2  1 
   C     23.50000000    57.25000000    25.87000000
   C     24.01000000    57.00000000    27.29000000
   O     25.14000000    56.52000000    27.33000000
   H     22.62500000    57.89900000    25.90800000
   H     24.28200000    57.72900000    25.28100000
   H     23.22700000    56.30100000    25.40900000
   N     23.11000000    57.10000000    28.27000000
   C     23.41000000    57.19000000    29.69000000
   C     23.54000000    55.77000000    30.21000000
   O     22.64000000    54.93000000    30.12000000
   C     22.38000000    58.03000000    30.43000000
   C     22.52000000    58.14000000    31.94000000
   O     23.60000000    57.80000000    32.46000000
   O     21.53000000    58.44000000    32.65000000
   H     22.29000000    57.62000000    27.99000000
   H     24.39000000    57.65000000    29.82000000
   H     21.39000000    57.66000000    30.15000000
   H     22.32000000    59.05000000    30.05000000
   N     24.69000000    55.42000000    30.80000000
   C     24.92000000    54.10000000    31.35000000
   C     24.37000000    53.84000000    32.74000000
   O     24.33000000    52.68000000    33.17000000
   C     26.39000000    53.71000000    31.23000000
   H     25.43000000    56.10000000    30.88000000
   H     24.41000000    53.42000000    30.67000000
   H     26.63000000    53.53000000    30.18000000
   H     26.92000000    54.59000000    31.60000000
   H     26.68000000    52.86000000    31.84000000
   N     24.07000000    54.93000000    33.45000000
   C     23.65000000    54.78000000    34.83000000
   C     22.16000000    54.96000000    35.10000000
   O     21.70000000    54.63000000    36.18000000
   C     24.41000000    55.72000000    35.75000000
   C     25.87000000    56.01000000    35.43000000
   O     26.70000000    55.08000000    35.54000000
   O     26.21000000    57.15000000    35.05000000
   H     24.13000000    55.85000000    33.04000000
   H     23.89000000    53.84000000    35.32000000
   H     24.42000000    55.38000000    36.79000000
   H     23.86000000    56.65000000    35.65000000
   N     21.47000000    55.59000000    34.14000000
   C     20.18000000    56.20000000    34.37000000
   C     20.24000000    57.20000000    35.52000000
   O     19.27000000    57.23000000    36.27000000
   H     21.93000000    55.79000000    33.27000000
   H     19.43000000    55.46000000    34.63000000
   H     19.85000000    56.66000000    33.44000000
   N     21.25000000    58.07000000    35.65000000
   C     21.30000000    59.22000000    36.53000000
   C     20.80000000    60.57000000    36.02000000
   O     20.79000000    61.54000000    36.77000000
   C     22.62000000    59.27000000    37.29000000
   C     23.83000000    59.11000000    36.37000000
   N     24.96000000    58.70000000    36.95000000
   O     23.78000000    59.42000000    35.18000000
   H     21.89000000    58.08000000    34.87000000
   H     20.64000000    59.03000000    37.37000000
   H     22.67000000    58.41000000    37.96000000
   H     22.74000000    60.07000000    38.01000000
   H     24.95000000    58.69000000    37.96000000
   H     25.74000000    58.52000000    36.33000000
   N     20.52000000    60.67000000    34.72000000
   C     19.96000000    61.86000000    34.11000000
   C     20.99000000    62.82000000    33.51000000
   O     20.71000000    63.92000000    33.06000000
   H     20.65000000    59.87000000    34.13000000
   H     19.36000000    62.36000000    34.87000000
   H     19.35000000    61.47000000    33.30000000
   N     22.27000000    62.44000000    33.52000000
   C     23.40000000    63.30000000    33.24000000
   C     24.47000000    62.52000000    32.49000000
   O     24.45000000    61.29000000    32.44000000
   C     23.99000000    63.94000000    34.50000000
   C     22.96000000    64.72000000    35.32000000
   O     24.34000000    62.94000000    35.43000000
   H     22.45000000    61.51000000    33.89000000
   H     23.15000000    64.22000000    32.70000000
   H     24.91000000    64.46000000    34.26000000
   H     24.65000000    63.45000000    36.18000000
   H     22.30000000    64.00000000    35.80000000
   H     23.45000000    65.22000000    36.16000000
   H     22.47000000    65.45000000    34.68000000
   N     25.28000000    63.14000000    31.64000000
   C     26.26000000    62.57000000    30.74000000
   C     27.68000000    62.71000000    31.27000000
   O     28.11000000    63.79000000    31.65000000
   C     26.00000000    63.21000000    29.38000000
   C     24.66000000    62.82000000    28.77000000
   C     27.05000000    62.86000000    28.33000000
   C     24.32000000    61.33000000    28.82000000
   H     25.27000000    64.15000000    31.72000000
   H     26.08000000    61.50000000    30.60000000
   H     25.96000000    64.29000000    29.54000000
   H     24.76000000    63.08000000    27.72000000
   H     23.88000000    63.44000000    29.22000000
   H     27.12000000    61.78000000    28.20000000
   H     26.85000000    63.34000000    27.37000000
   H     28.05000000    63.23000000    28.58000000
   H     25.22000000    60.73000000    28.69000000
   H     23.95000000    61.12000000    29.83000000
   H     23.64000000    61.00000000    28.03000000
   N     28.35000000    61.56000000    31.36000000
   C     29.76000000    61.49000000    31.67000000
   C     30.54000000    61.42000000    30.37000000
   O     30.01000000    61.38000000    29.26000000
   C     29.95000000    60.19000000    32.45000000
   C     29.19000000    60.01000000    33.76000000
   O     28.12000000    59.36000000    33.74000000
   O     29.63000000    60.35000000    34.88000000
   H     27.87000000    60.76000000    30.95000000
   H     30.14000000    62.36000000    32.21000000
   H     31.01000000    60.04000000    32.65000000
   H     29.75000000    59.41000000    31.72000000
   N     31.87000000    61.32000000    30.49000000
   C     32.81000000    61.21000000    29.39000000
   C     32.63000000    60.02000000    28.46000000
   O     32.37000000    60.26000000    27.29000000
   C     34.24000000    61.28000000    29.92000000
   C     35.35000000    61.29000000    28.89000000
   C     35.55000000    62.50000000    28.22000000
   C     36.20000000    60.19000000    28.69000000
   C     36.56000000    62.52000000    27.25000000
   C     37.22000000    60.22000000    27.73000000
   C     37.39000000    61.42000000    27.03000000
   H     32.30000000    61.65000000    31.34000000
   H     32.60000000    62.11000000    28.80000000
   H     34.39000000    60.51000000    30.68000000
   H     34.27000000    62.24000000    30.43000000
   H     35.07000000    63.44000000    28.43000000
   H     36.02000000    59.33000000    29.31000000
   H     36.61000000    63.37000000    26.58000000
   H     37.81000000    59.35000000    27.50000000
   H     38.03000000    61.38000000    26.16000000
   N     32.49000000    58.76000000    28.88000000
   C     32.35000000    57.65000000    27.95000000
   C     31.06000000    57.76000000    27.15000000
   O     30.92000000    57.40000000    25.98000000
   C     32.25000000    56.38000000    28.79000000
   C     33.10000000    56.74000000    30.01000000
   C     32.65000000    58.19000000    30.20000000
   H     33.14000000    57.62000000    27.21000000
   H     31.24000000    56.16000000    29.14000000
   H     32.65000000    55.53000000    28.24000000
   H     32.87000000    56.08000000    30.84000000
   H     34.18000000    56.74000000    29.87000000
   H     31.73000000    58.29000000    30.77000000
   H     33.34000000    58.74000000    30.84000000
   N     30.08000000    58.35000000    27.85000000
   C     28.78000000    58.61000000    27.28000000
   C     28.84000000    59.70000000    26.22000000
   O     28.34000000    59.53000000    25.11000000
   C     27.76000000    58.97000000    28.35000000
   C     27.64000000    57.88000000    29.42000000
   C     27.03000000    58.27000000    30.76000000
   O     26.56000000    59.40000000    30.98000000
   O     26.96000000    57.37000000    31.62000000
   H     30.28000000    58.61000000    28.81000000
   H     28.31000000    57.75000000    26.82000000
   H     26.77000000    59.17000000    27.93000000
   H     28.08000000    59.86000000    28.89000000
   H     28.57000000    57.37000000    29.67000000
   H     27.14000000    57.01000000    29.00000000
   N     29.54000000    60.82000000    26.42000000
   C     29.77000000    61.90000000    25.48000000
   H     30.79500000    61.84800000    25.11200000
   H     29.07800000    61.80700000    24.64300000
   H     29.61200000    62.85600000    25.97900000
   H     29.79000000    60.88000000    27.40000000
  Ca     25.63000000    59.09000000    33.37000000
   O     26.12000000    61.19000000    34.83000000
   H     26.71000000    61.20000000    35.58000000
   H     25.35000000    61.68000000    35.12000000

Ca 1.00



