%chk=loop1.holoCaM.run76.water2.chk
%nprocshared=20
%mem=10GB
%nosave
#b3lyp/svp scf=(tight,noincore,xqc) Test 
#IOP(5/87=12) Density=Current Pop=(MK,readradii) iop(6/33=2) iop(6/42=6)

loop1.holoCaM.run76.water2 

   0  1 
   C     31.70000000    39.89000000    27.68000000
   C     31.88000000    38.39000000    27.91000000
   O     31.84000000    37.64000000    26.94000000
   H     30.81000000    40.23300000    28.20700000
   H     32.57300000    40.42300000    28.05700000
   H     31.58800000    40.08400000    26.61300000
   N     31.95000000    37.94000000    29.17000000
   C     31.60000000    36.56000000    29.44000000
   C     30.12000000    36.31000000    29.22000000
   O     29.29000000    36.69000000    30.04000000
   C     32.00000000    36.25000000    30.88000000
   C     31.66000000    34.83000000    31.30000000
   O     31.86000000    34.44000000    32.47000000
   O     31.43000000    33.98000000    30.41000000
   H     31.92000000    38.59000000    29.94000000
   H     32.09000000    35.76000000    28.89000000
   H     31.58000000    36.97000000    31.58000000
   H     33.06000000    36.48000000    30.97000000
   N     29.79000000    35.69000000    28.08000000
   C     28.43000000    35.39000000    27.68000000
   C     27.77000000    34.12000000    28.19000000
   O     26.54000000    34.05000000    28.10000000
   C     28.35000000    35.45000000    26.16000000
   C     28.36000000    36.79000000    25.42000000
   C     27.37000000    37.79000000    26.02000000
   C     27.29000000    38.97000000    25.05000000
   N     27.22000000    40.23000000    25.81000000
   H     30.60000000    35.44000000    27.54000000
   H     27.73000000    36.13000000    28.07000000
   H     27.49000000    34.95000000    25.72000000
   H     29.21000000    34.89000000    25.79000000
   H     28.23000000    36.66000000    24.34000000
   H     29.35000000    37.21000000    25.61000000
   H     27.71000000    38.31000000    26.91000000
   H     26.39000000    37.34000000    26.19000000
   H     26.40000000    38.76000000    24.46000000
   H     28.22000000    38.94000000    24.48000000
   H     27.09000000    40.95000000    25.11000000
   H     26.43000000    40.31000000    26.43000000
   H     28.09000000    40.35000000    26.31000000
   N     28.51000000    33.23000000    28.85000000
   C     28.08000000    31.92000000    29.29000000
   C     28.41000000    31.51000000    30.71000000
   O     27.81000000    30.52000000    31.14000000
   C     28.49000000    30.85000000    28.28000000
   C     29.96000000    30.76000000    27.92000000
   O     30.30000000    29.93000000    27.04000000
   O     30.82000000    31.40000000    28.55000000
   H     29.49000000    33.45000000    29.01000000
   H     27.00000000    31.85000000    29.22000000
   H     28.05000000    31.08000000    27.31000000
   H     28.20000000    29.90000000    28.74000000
   N     29.21000000    32.18000000    31.54000000
   C     29.21000000    32.01000000    32.97000000
   C     30.38000000    31.24000000    33.57000000
   O     30.13000000    30.34000000    34.37000000
   H     29.72000000    32.98000000    31.17000000
   H     28.27000000    31.58000000    33.34000000
   H     29.14000000    32.99000000    33.45000000
   N     31.59000000    31.49000000    33.08000000
   C     32.78000000    30.78000000    33.53000000
   C     33.80000000    31.65000000    34.24000000
   O     34.70000000    31.16000000    34.93000000
   C     33.42000000    29.98000000    32.40000000
   C     33.63000000    30.80000000    31.14000000
   O     33.33000000    30.35000000    30.01000000
   O     34.02000000    31.98000000    31.29000000
   H     31.60000000    32.37000000    32.59000000
   H     32.58000000    30.01000000    34.28000000
   H     32.76000000    29.12000000    32.24000000
   H     34.38000000    29.60000000    32.75000000
   N     33.70000000    32.96000000    34.01000000
   C     34.45000000    34.04000000    34.61000000
   C     35.50000000    34.60000000    33.65000000
   O     36.37000000    35.34000000    34.10000000
   H     32.93000000    33.21000000    33.40000000
   H     35.00000000    33.54000000    35.42000000
   H     33.80000000    34.75000000    35.11000000
   N     35.55000000    34.23000000    32.37000000
   C     36.63000000    34.62000000    31.48000000
   C     36.00000000    34.75000000    30.10000000
   O     34.80000000    34.53000000    29.92000000
   C     37.72000000    33.55000000    31.44000000
   C     38.61000000    33.36000000    32.66000000
   O     37.15000000    32.28000000    31.22000000
   H     34.80000000    33.66000000    32.00000000
   H     37.09000000    35.57000000    31.73000000
   H     38.34000000    33.72000000    30.56000000
   H     36.55000000    32.22000000    31.97000000
   H     39.28000000    32.51000000    32.53000000
   H     39.29000000    34.21000000    32.75000000
   H     38.02000000    33.30000000    33.58000000
   N     36.75000000    35.21000000    29.09000000
   C     36.35000000    35.39000000    27.71000000
   C     37.22000000    34.46000000    26.87000000
   O     38.44000000    34.52000000    26.96000000
   C     36.64000000    36.82000000    27.28000000
   C     35.92000000    37.82000000    28.18000000
   C     36.34000000    37.00000000    25.80000000
   C     36.34000000    39.27000000    27.96000000
   H     37.72000000    35.34000000    29.34000000
   H     35.30000000    35.20000000    27.51000000
   H     37.71000000    36.99000000    27.42000000
   H     36.02000000    37.61000000    29.25000000
   H     34.87000000    37.82000000    27.89000000
   H     36.70000000    36.22000000    25.13000000
   H     35.28000000    37.10000000    25.55000000
   H     36.71000000    37.97000000    25.46000000
   H     37.42000000    39.34000000    28.10000000
   H     36.22000000    39.57000000    26.92000000
   H     35.80000000    39.84000000    28.72000000
   N     36.57000000    33.75000000    25.95000000
   C     37.12000000    32.89000000    24.92000000
   C     37.00000000    33.42000000    23.50000000
   O     36.36000000    34.46000000    23.29000000
   C     36.54000000    31.48000000    25.04000000
   C     35.12000000    31.27000000    24.54000000
   O     37.28000000    30.64000000    24.17000000
   H     35.57000000    33.74000000    26.01000000
   H     38.21000000    32.85000000    25.04000000
   H     36.56000000    31.14000000    26.07000000
   H     37.16000000    29.72000000    24.44000000
   H     34.87000000    30.21000000    24.60000000
   H     34.42000000    31.78000000    25.21000000
   H     34.98000000    31.55000000    23.49000000
   N     37.70000000    32.88000000    22.50000000
   C     37.86000000    33.48000000    21.19000000
   C     36.58000000    33.95000000    20.53000000
   O     36.46000000    35.10000000    20.13000000
   C     38.66000000    32.61000000    20.22000000
   C     40.09000000    32.40000000    20.71000000
   O     38.02000000    31.39000000    19.94000000
   H     38.13000000    32.00000000    22.74000000
   H     38.46000000    34.39000000    21.23000000
   H     38.74000000    33.18000000    19.29000000
   H     37.95000000    31.43000000    18.98000000
   H     40.10000000    32.27000000    21.80000000
   H     40.41000000    31.49000000    20.21000000
   H     40.78000000    33.21000000    20.45000000
   N     35.54000000    33.11000000    20.57000000
   C     34.25000000    33.37000000    19.97000000
   C     33.60000000    34.55000000    20.69000000
   O     32.98000000    35.41000000    20.06000000
   C     33.37000000    32.13000000    20.09000000
   C     31.99000000    32.16000000    19.42000000
   C     32.12000000    32.22000000    17.90000000
   C     30.82000000    32.11000000    17.12000000
   N     30.99000000    31.65000000    15.73000000
   H     35.62000000    32.22000000    21.06000000
   H     34.40000000    33.66000000    18.93000000
   H     33.22000000    31.88000000    21.14000000
   H     33.98000000    31.31000000    19.72000000
   H     31.37000000    32.96000000    19.80000000
   H     31.54000000    31.20000000    19.68000000
   H     32.77000000    31.43000000    17.51000000
   H     32.65000000    33.16000000    17.73000000
   H     30.28000000    33.05000000    17.23000000
   H     30.27000000    31.32000000    17.62000000
   H     31.43000000    32.39000000    15.20000000
   H     31.55000000    30.81000000    15.74000000
   H     30.08000000    31.42000000    15.35000000
   N     33.70000000    34.71000000    22.01000000
   C     33.25000000    35.88000000    22.74000000
   C     33.93000000    37.19000000    22.40000000
   O     33.25000000    38.22000000    22.38000000
   C     33.35000000    35.61000000    24.24000000
   C     32.45000000    34.45000000    24.66000000
   C     32.55000000    33.97000000    26.10000000
   O     33.66000000    33.63000000    26.56000000
   O     31.63000000    33.77000000    26.92000000
   H     34.36000000    34.13000000    22.52000000
   H     32.18000000    35.94000000    22.55000000
   H     33.14000000    36.58000000    24.70000000
   H     34.37000000    35.37000000    24.52000000
   H     32.53000000    33.61000000    23.96000000
   H     31.41000000    34.77000000    24.54000000
   N     35.25000000    37.13000000    22.18000000
   C     36.11000000    38.22000000    21.75000000
   H     37.05900000    37.81600000    21.39700000
   H     35.62600000    38.76800000    20.94200000
   H     36.29200000    38.89300000    22.58800000
   H     35.59000000    36.20000000    22.00000000
  Ca     33.05000000    32.74000000    28.88000000
   O     35.72000000    31.77000000    28.79000000
   H     36.13000000    31.64000000    29.64000000
   H     35.98000000    31.00000000    28.28000000
   O     32.97000000    30.42000000    27.12000000
   H     33.00000000    29.83000000    26.36000000
   H     32.04000000    30.50000000    27.32000000

Ca 1.00



