%chk=loop2.apoCaM-CA-Ng.Init295.run14.water2.chk
%nprocshared=20
%mem=10GB
%nosave
#b3lyp/svp scf=(tight,noincore,xqc) Test 
#IOP(5/87=12) Density=Current Pop=(MK,readradii) iop(6/33=2) iop(6/42=6)

loop2.apoCaM-CA-Ng.Init295.run14.water2 

   -2  1 
   C     80.38000000    48.02000000    54.54000000
   C     80.05000000    47.76000000    53.08000000
   O     79.17000000    46.98000000    52.72000000
   H     81.19100000    48.74600000    54.60500000
   H     79.49900000    48.41400000    55.04800000
   H     80.68800000    47.08800000    55.01500000
   N     80.74000000    48.46000000    52.18000000
   C     80.43000000    48.31000000    50.77000000
   C     79.10000000    48.97000000    50.43000000
   O     78.57000000    49.79000000    51.17000000
   C     81.61000000    48.85000000    49.98000000
   C     81.52000000    48.44000000    48.51000000
   O     80.93000000    47.39000000    48.18000000
   O     82.14000000    49.10000000    47.66000000
   H     81.46000000    49.12000000    52.45000000
   H     80.36000000    47.26000000    50.51000000
   H     82.60000000    48.58000000    50.35000000
   H     81.65000000    49.94000000    50.04000000
   N     78.58000000    48.66000000    49.23000000
   C     77.19000000    48.89000000    48.90000000
   C     76.31000000    47.83000000    49.54000000
   O     76.67000000    46.65000000    49.54000000
   C     77.03000000    49.06000000    47.40000000
   H     79.17000000    48.11000000    48.62000000
   H     76.87000000    49.87000000    49.24000000
   H     77.45000000    48.14000000    46.97000000
   H     75.95000000    48.99000000    47.26000000
   H     77.47000000    49.92000000    46.90000000
   N     75.11000000    48.13000000    50.05000000
   C     74.41000000    49.40000000    50.05000000
   C     74.87000000    50.24000000    51.24000000
   O     75.17000000    49.73000000    52.31000000
   C     72.91000000    49.11000000    50.09000000
   C     72.41000000    48.32000000    51.29000000
   O     72.88000000    47.20000000    51.58000000
   O     71.49000000    48.73000000    52.03000000
   H     74.53000000    47.43000000    50.49000000
   H     74.78000000    49.87000000    49.14000000
   H     72.72000000    48.59000000    49.15000000
   H     72.41000000    50.08000000    50.03000000
   N     75.18000000    51.50000000    50.95000000
   C     75.79000000    52.50000000    51.80000000
   C     76.90000000    53.34000000    51.18000000
   O     77.39000000    53.05000000    50.09000000
   H     75.01000000    51.87000000    50.02000000
   H     76.15000000    52.04000000    52.72000000
   H     74.98000000    53.20000000    52.03000000
   N     77.47000000    54.38000000    51.80000000
   C     76.95000000    55.04000000    52.98000000
   C     77.72000000    54.62000000    54.22000000
   O     78.82000000    55.14000000    54.33000000
   C     76.99000000    56.52000000    52.62000000
   C     75.96000000    56.93000000    51.58000000
   N     74.70000000    56.51000000    51.77000000
   O     76.28000000    57.42000000    50.50000000
   H     78.16000000    54.91000000    51.28000000
   H     75.91000000    54.78000000    53.15000000
   H     77.98000000    56.83000000    52.27000000
   H     76.75000000    56.98000000    53.58000000
   H     74.42000000    56.43000000    52.74000000
   H     74.00000000    56.74000000    51.08000000
   N     77.21000000    53.70000000    55.05000000
   C     77.98000000    53.12000000    56.13000000
   C     77.29000000    52.66000000    57.41000000
   O     78.01000000    52.55000000    58.41000000
   H     76.25000000    53.38000000    55.03000000
   H     78.84000000    53.71000000    56.46000000
   H     78.45000000    52.23000000    55.74000000
   N     76.00000000    52.33000000    57.37000000
   C     75.26000000    51.67000000    58.42000000
   C     75.05000000    50.19000000    58.13000000
   O     74.95000000    49.77000000    56.99000000
   C     73.92000000    52.34000000    58.72000000
   C     74.23000000    53.77000000    59.16000000
   O     73.07000000    52.38000000    57.59000000
   H     75.44000000    52.60000000    56.57000000
   H     75.86000000    51.81000000    59.32000000
   H     73.45000000    51.84000000    59.57000000
   H     72.85000000    51.48000000    57.34000000
   H     73.31000000    54.19000000    59.56000000
   H     75.00000000    53.68000000    59.92000000
   H     74.58000000    54.40000000    58.34000000
   N     74.70000000    49.44000000    59.18000000
   C     74.41000000    48.02000000    59.12000000
   C     72.92000000    47.85000000    59.40000000
   O     72.34000000    48.62000000    60.16000000
   C     75.40000000    47.17000000    59.92000000
   C     76.88000000    47.49000000    59.81000000
   C     75.04000000    47.15000000    61.40000000
   C     77.47000000    47.46000000    58.40000000
   H     74.70000000    49.85000000    60.10000000
   H     74.51000000    47.61000000    58.12000000
   H     75.24000000    46.14000000    59.59000000
   H     77.49000000    46.88000000    60.48000000
   H     77.06000000    48.51000000    60.15000000
   H     75.31000000    48.05000000    61.95000000
   H     73.98000000    47.06000000    61.65000000
   H     75.56000000    46.29000000    61.81000000
   H     77.27000000    46.54000000    57.85000000
   H     77.08000000    48.28000000    57.79000000
   H     78.54000000    47.59000000    58.51000000
   N     72.32000000    46.76000000    58.90000000
   C     70.97000000    46.34000000    59.22000000
   C     70.81000000    44.83000000    59.28000000
   O     71.30000000    44.07000000    58.46000000
   C     70.00000000    46.92000000    58.19000000
   C     70.48000000    46.95000000    56.75000000
   O     71.05000000    47.96000000    56.27000000
   O     70.18000000    46.03000000    55.96000000
   H     72.87000000    46.18000000    58.29000000
   H     70.71000000    46.85000000    60.15000000
   H     69.94000000    47.95000000    58.53000000
   H     69.02000000    46.46000000    58.26000000
   N     70.12000000    44.42000000    60.35000000
   C     70.05000000    43.04000000    60.78000000
   C     71.39000000    42.35000000    61.02000000
   O     72.24000000    42.99000000    61.64000000
   C     69.23000000    43.03000000    62.06000000
   C     68.90000000    41.63000000    62.54000000
   C     69.62000000    40.94000000    63.52000000
   C     67.78000000    40.98000000    62.00000000
   C     69.28000000    39.67000000    63.99000000
   C     67.44000000    39.69000000    62.44000000
   C     68.21000000    39.00000000    63.38000000
   H     69.65000000    45.15000000    60.87000000
   H     69.56000000    42.44000000    60.01000000
   H     68.28000000    43.53000000    61.87000000
   H     69.74000000    43.53000000    62.89000000
   H     70.43000000    41.54000000    63.90000000
   H     67.22000000    41.55000000    61.27000000
   H     69.75000000    39.33000000    64.91000000
   H     66.55000000    39.27000000    61.99000000
   H     67.93000000    38.01000000    63.70000000
   N     71.65000000    41.16000000    60.49000000
   C     72.94000000    40.51000000    60.61000000
   C     74.09000000    41.12000000    59.82000000
   O     75.21000000    40.62000000    59.82000000
   C     72.74000000    39.09000000    60.11000000
   C     71.23000000    38.85000000    60.10000000
   C     70.74000000    40.26000000    59.81000000
   H     73.20000000    40.46000000    61.67000000
   H     73.06000000    38.99000000    59.07000000
   H     73.18000000    38.30000000    60.72000000
   H     70.88000000    38.25000000    59.26000000
   H     70.97000000    38.42000000    61.07000000
   H     70.72000000    40.53000000    58.76000000
   H     69.72000000    40.34000000    60.19000000
   N     73.94000000    42.26000000    59.14000000
   C     74.99000000    43.08000000    58.56000000
   C     76.10000000    43.51000000    59.52000000
   O     77.16000000    43.88000000    59.03000000
   C     74.51000000    44.20000000    57.66000000
   C     74.06000000    43.78000000    56.26000000
   C     73.52000000    44.95000000    55.44000000
   O     73.51000000    46.11000000    55.90000000
   O     72.86000000    44.77000000    54.40000000
   H     72.99000000    42.60000000    59.15000000
   H     75.52000000    42.43000000    57.86000000
   H     75.27000000    44.98000000    57.50000000
   H     73.72000000    44.71000000    58.21000000
   H     73.35000000    42.96000000    56.29000000
   H     74.92000000    43.45000000    55.68000000
   N     76.01000000    43.36000000    60.84000000
   C     77.06000000    43.69000000    61.79000000
   H     77.90100000    44.13800000    61.26000000
   H     76.67600000    44.39700000    62.52500000
   H     77.39100000    42.78300000    62.29600000
   H     75.05000000    43.27000000    61.15000000
  Ca     71.70000000    47.05000000    53.99000000
   O     73.72000000    48.73000000    54.65000000
   H     74.02000000    48.71000000    55.56000000
   H     74.46000000    49.10000000    54.16000000
   O     70.23000000    45.27000000    52.45000000
   H     69.99000000    44.77000000    51.66000000
   H     69.42000000    45.35000000    52.95000000

Ca 1.00



