%chk=loop1.holoCaM-CaMKII.run83.water2.chk
%nprocshared=20
%mem=10GB
%nosave
#b3lyp/svp scf=(tight,noincore,xqc) Test 
#IOP(5/87=12) Density=Current Pop=(MK,readradii) iop(6/33=2) iop(6/42=6)

loop1.holoCaM-CaMKII.run83.water2 

   0  1 
   C     57.83000000    65.06000000    86.38000000
   C     58.84000000    66.08000000    86.88000000
   O     60.04000000    65.92000000    86.67000000
   H     56.94000000    65.57700000    86.02100000
   H     58.26800000    64.48300000    85.56600000
   H     57.55600000    64.39000000    87.19500000
   N     58.42000000    67.19000000    87.49000000
   C     59.28000000    68.30000000    87.87000000
   C     60.06000000    67.99000000    89.14000000
   O     59.62000000    68.35000000    90.23000000
   C     58.36000000    69.51000000    88.00000000
   C     59.17000000    70.78000000    88.25000000
   O     58.50000000    71.78000000    88.60000000
   O     60.41000000    70.72000000    88.31000000
   H     57.43000000    67.34000000    87.54000000
   H     60.03000000    68.49000000    87.12000000
   H     57.59000000    69.37000000    88.76000000
   H     57.80000000    69.55000000    87.07000000
   N     61.09000000    67.14000000    89.08000000
   C     61.80000000    66.59000000    90.22000000
   C     62.55000000    67.53000000    91.16000000
   O     62.88000000    67.24000000    92.30000000
   C     62.71000000    65.42000000    89.86000000
   C     62.10000000    64.24000000    89.10000000
   C     60.93000000    63.52000000    89.76000000
   C     60.47000000    62.29000000    88.99000000
   N     59.56000000    61.37000000    89.69000000
   H     61.52000000    66.84000000    88.22000000
   H     61.07000000    66.22000000    90.94000000
   H     62.98000000    64.93000000    90.79000000
   H     63.57000000    65.86000000    89.35000000
   H     62.80000000    63.41000000    88.96000000
   H     61.82000000    64.58000000    88.11000000
   H     60.11000000    64.24000000    89.81000000
   H     61.24000000    63.37000000    90.79000000
   H     61.40000000    61.74000000    88.82000000
   H     60.06000000    62.62000000    88.04000000
   H     58.67000000    61.82000000    89.86000000
   H     59.39000000    60.57000000    89.10000000
   H     59.97000000    61.09000000    90.58000000
   N     62.80000000    68.75000000    90.66000000
   C     63.36000000    69.80000000    91.49000000
   C     62.34000000    70.87000000    91.87000000
   O     62.63000000    71.62000000    92.80000000
   C     64.55000000    70.42000000    90.76000000
   C     64.58000000    70.38000000    89.24000000
   O     63.52000000    70.54000000    88.59000000
   O     65.69000000    70.28000000    88.69000000
   H     62.46000000    69.00000000    89.75000000
   H     63.69000000    69.41000000    92.44000000
   H     65.45000000    69.97000000    91.19000000
   H     64.52000000    71.47000000    91.06000000
   N     61.13000000    70.88000000    91.30000000
   C     60.00000000    71.71000000    91.63000000
   C     60.28000000    73.19000000    91.39000000
   O     60.35000000    74.00000000    92.31000000
   H     60.96000000    70.28000000    90.50000000
   H     59.72000000    71.55000000    92.67000000
   H     59.15000000    71.42000000    91.02000000
   N     60.31000000    73.57000000    90.12000000
   C     60.46000000    74.93000000    89.62000000
   C     59.27000000    75.48000000    88.84000000
   O     59.31000000    76.65000000    88.46000000
   C     61.79000000    75.15000000    88.91000000
   C     62.12000000    74.06000000    87.90000000
   O     63.27000000    73.58000000    87.90000000
   O     61.24000000    73.62000000    87.13000000
   H     60.09000000    72.82000000    89.48000000
   H     60.41000000    75.52000000    90.54000000
   H     62.53000000    75.12000000    89.71000000
   H     61.88000000    76.14000000    88.47000000
   N     58.29000000    74.64000000    88.51000000
   C     57.26000000    75.05000000    87.57000000
   C     57.70000000    74.91000000    86.12000000
   O     57.10000000    75.52000000    85.24000000
   H     58.24000000    73.68000000    88.81000000
   H     57.01000000    76.09000000    87.79000000
   H     56.31000000    74.56000000    87.77000000
   N     58.72000000    74.13000000    85.77000000
   C     59.01000000    73.80000000    84.39000000
   C     59.45000000    72.34000000    84.34000000
   O     60.05000000    71.82000000    85.29000000
   C     60.00000000    74.79000000    83.78000000
   C     59.54000000    76.24000000    83.67000000
   O     61.16000000    74.77000000    84.57000000
   H     59.22000000    73.63000000    86.50000000
   H     58.12000000    73.91000000    83.77000000
   H     60.17000000    74.59000000    82.72000000
   H     60.85000000    74.60000000    85.47000000
   H     60.37000000    76.79000000    83.22000000
   H     58.62000000    76.30000000    83.09000000
   H     59.49000000    76.61000000    84.69000000
   N     59.09000000    71.72000000    83.21000000
   C     59.57000000    70.38000000    82.98000000
   C     60.57000000    70.37000000    81.83000000
   O     60.33000000    70.95000000    80.78000000
   C     58.49000000    69.32000000    82.77000000
   C     57.50000000    69.41000000    83.93000000
   C     59.12000000    67.93000000    82.65000000
   C     56.23000000    68.61000000    83.69000000
   H     58.64000000    72.27000000    82.50000000
   H     60.08000000    70.00000000    83.87000000
   H     58.07000000    69.62000000    81.81000000
   H     57.12000000    70.43000000    84.02000000
   H     58.03000000    69.13000000    84.84000000
   H     59.64000000    67.66000000    83.57000000
   H     58.31000000    67.23000000    82.45000000
   H     59.73000000    67.94000000    81.75000000
   H     55.60000000    69.07000000    82.92000000
   H     56.56000000    67.59000000    83.46000000
   H     55.57000000    68.51000000    84.55000000
   N     61.74000000    69.75000000    82.00000000
   C     62.79000000    69.47000000    81.04000000
   C     62.61000000    68.22000000    80.19000000
   O     61.81000000    67.31000000    80.42000000
   C     64.21000000    69.47000000    81.59000000
   C     64.46000000    70.66000000    82.51000000
   O     64.57000000    68.25000000    82.20000000
   H     61.84000000    69.28000000    82.89000000
   H     62.75000000    70.31000000    80.35000000
   H     64.88000000    69.55000000    80.74000000
   H     64.99000000    68.54000000    83.01000000
   H     65.51000000    70.85000000    82.71000000
   H     64.17000000    71.61000000    82.06000000
   H     63.93000000    70.43000000    83.44000000
   N     63.39000000    68.11000000    79.11000000
   C     63.50000000    66.84000000    78.43000000
   C     64.00000000    65.72000000    79.34000000
   O     63.49000000    64.61000000    79.19000000
   C     64.50000000    67.01000000    77.28000000
   C     64.08000000    67.97000000    76.17000000
   O     65.75000000    67.45000000    77.75000000
   H     63.85000000    68.95000000    78.81000000
   H     62.52000000    66.52000000    78.08000000
   H     64.61000000    66.02000000    76.84000000
   H     66.37000000    67.35000000    77.01000000
   H     63.18000000    67.62000000    75.66000000
   H     63.92000000    68.95000000    76.61000000
   H     64.89000000    68.01000000    75.44000000
   N     64.99000000    65.96000000    80.19000000
   C     65.53000000    64.95000000    81.08000000
   C     64.50000000    64.37000000    82.05000000
   O     64.43000000    63.16000000    82.20000000
   C     66.88000000    65.45000000    81.59000000
   C     67.69000000    64.31000000    82.19000000
   C     69.00000000    64.77000000    82.84000000
   C     68.89000000    65.73000000    84.02000000
   N     70.15000000    66.45000000    84.26000000
   H     65.36000000    66.88000000    80.35000000
   H     65.76000000    64.09000000    80.46000000
   H     66.74000000    66.24000000    82.33000000
   H     67.44000000    65.82000000    80.73000000
   H     67.76000000    63.56000000    81.41000000
   H     67.07000000    63.86000000    82.96000000
   H     69.56000000    65.32000000    82.07000000
   H     69.35000000    63.85000000    83.30000000
   H     68.69000000    65.18000000    84.94000000
   H     68.07000000    66.41000000    83.78000000
   H     70.86000000    65.75000000    84.41000000
   H     70.50000000    67.00000000    83.49000000
   H     70.14000000    67.04000000    85.08000000
   N     63.68000000    65.29000000    82.57000000
   C     62.52000000    65.11000000    83.41000000
   C     61.37000000    64.42000000    82.69000000
   O     60.83000000    63.44000000    83.18000000
   C     62.11000000    66.42000000    84.07000000
   C     63.07000000    67.06000000    85.07000000
   C     62.44000000    68.35000000    85.59000000
   O     62.43000000    68.57000000    86.82000000
   O     62.15000000    69.30000000    84.83000000
   H     63.99000000    66.24000000    82.45000000
   H     62.83000000    64.44000000    84.22000000
   H     61.12000000    66.28000000    84.50000000
   H     61.98000000    67.12000000    83.25000000
   H     64.03000000    67.24000000    84.58000000
   H     63.19000000    66.34000000    85.88000000
   N     61.06000000    64.83000000    81.46000000
   C     60.01000000    64.18000000    80.69000000
   H     59.15900000    64.85500000    80.59500000
   H     60.38700000    63.93000000    79.69800000
   H     59.69600000    63.26900000    81.20000000
   H     61.50000000    65.63000000    81.04000000
  Ca     62.27000000    71.23000000    86.60000000
   O     62.73000000    72.70000000    84.49000000
   H     62.14000000    73.45000000    84.51000000
   H     63.59000000    73.08000000    84.32000000
   O     65.20000000    70.95000000    85.82000000
   H     65.86000000    70.49000000    85.30000000
   H     65.44000000    70.77000000    86.73000000

Ca 1.00



