%chk=loop4.apoCaM-CA-Ng.Init293.run100.water3.chk
%nprocshared=20
%mem=10GB
%nosave
#b3lyp/svp scf=(tight,noincore,xqc) Test 
#IOP(5/87=12) Density=Current Pop=(MK,readradii) iop(6/33=2) iop(6/42=6)

loop4.apoCaM-CA-Ng.Init293.run100.water3 

   -3  1 
   C     94.88000000    82.59000000    43.65000000
   C     95.92000000    81.74000000    44.37000000
   O     95.64000000    80.55000000    44.48000000
   H     94.00900000    82.71800000    44.29200000
   H     95.30600000    83.56600000    43.41700000
   H     94.58000000    82.09400000    42.72700000
   N     97.10000000    82.28000000    44.70000000
   C     98.31000000    81.62000000    45.11000000
   C     98.72000000    80.25000000    44.59000000
   O     99.70000000    79.65000000    45.02000000
   C     98.40000000    81.50000000    46.63000000
   C     97.19000000    80.80000000    47.23000000
   O     96.47000000    81.33000000    48.10000000
   O     96.91000000    79.64000000    46.86000000
   H     97.07000000    83.28000000    44.54000000
   H     99.09000000    82.28000000    44.73000000
   H     98.51000000    82.52000000    47.00000000
   H     99.35000000    81.05000000    46.92000000
   N     98.19000000    79.86000000    43.42000000
   C     98.41000000    78.56000000    42.83000000
   C     97.95000000    77.46000000    43.78000000
   O     96.84000000    77.52000000    44.30000000
   C     97.77000000    78.50000000    41.44000000
   C     98.65000000    79.27000000    40.46000000
   C     96.36000000    79.06000000    41.34000000
   C     98.27000000    79.03000000    39.01000000
   H     97.73000000    80.54000000    42.84000000
   H     99.48000000    78.45000000    42.70000000
   H     97.71000000    77.49000000    41.02000000
   H     99.69000000    78.98000000    40.61000000
   H     98.53000000    80.35000000    40.57000000
   H     96.29000000    80.13000000    41.53000000
   H     95.97000000    78.93000000    40.33000000
   H     95.68000000    78.64000000    42.07000000
   H     99.09000000    79.36000000    38.38000000
   H     98.29000000    77.96000000    38.81000000
   H     97.33000000    79.52000000    38.75000000
   N     98.77000000    76.41000000    43.91000000
   C     98.48000000    75.29000000    44.78000000
   C     98.73000000    75.51000000    46.27000000
   O     99.54000000    76.37000000    46.61000000
   C     99.25000000    74.08000000    44.24000000
   C    100.76000000    74.16000000    44.12000000
   O    101.25000000    74.90000000    43.23000000
   O    101.44000000    73.54000000    44.97000000
   H     99.66000000    76.40000000    43.44000000
   H     97.42000000    75.09000000    44.70000000
   H     98.79000000    73.83000000    43.28000000
   H     99.01000000    73.19000000    44.80000000
   N     97.96000000    74.98000000    47.21000000
   C     96.88000000    74.02000000    47.04000000
   C     95.55000000    74.68000000    46.70000000
   O     95.44000000    75.89000000    46.54000000
   H     98.16000000    75.29000000    48.15000000
   H     96.72000000    73.51000000    47.99000000
   H     97.21000000    73.27000000    46.31000000
   N     94.46000000    73.92000000    46.58000000
   C     94.34000000    72.48000000    46.50000000
   C     93.15000000    71.98000000    45.70000000
   O     92.19000000    71.47000000    46.27000000
   C     94.43000000    71.83000000    47.88000000
   C     94.51000000    70.31000000    47.89000000
   O     94.89000000    69.66000000    46.88000000
   O     94.24000000    69.77000000    48.98000000
   H     93.64000000    74.43000000    46.30000000
   H     95.17000000    72.04000000    45.93000000
   H     93.62000000    72.16000000    48.53000000
   H     95.31000000    72.25000000    48.36000000
   N     93.08000000    72.22000000    44.38000000
   C     93.93000000    73.03000000    43.53000000
   C     94.46000000    72.16000000    42.40000000
   O     95.23000000    71.24000000    42.67000000
   H     92.24000000    71.81000000    44.01000000
   H     94.77000000    73.34000000    44.14000000
   H     93.46000000    73.98000000    43.26000000
   N     94.06000000    72.42000000    41.15000000
   C     94.43000000    71.75000000    39.92000000
   C     94.53000000    72.61000000    38.67000000
   O     93.85000000    72.41000000    37.67000000
   C     93.57000000    70.50000000    39.72000000
   C     94.16000000    69.39000000    38.87000000
   C     93.30000000    68.14000000    38.96000000
   N     93.87000000    66.94000000    38.78000000
   O     92.10000000    68.19000000    39.23000000
   H     93.35000000    73.13000000    41.01000000
   H     95.38000000    71.31000000    40.20000000
   H     92.59000000    70.80000000    39.33000000
   H     93.42000000    70.17000000    40.74000000
   H     95.19000000    69.19000000    39.18000000
   H     94.15000000    69.82000000    37.86000000
   H     94.87000000    66.91000000    38.64000000
   H     93.33000000    66.09000000    38.86000000
   N     95.54000000    73.48000000    38.59000000
   C     95.58000000    74.65000000    37.73000000
   C     94.55000000    75.66000000    38.21000000
   O     94.43000000    76.02000000    39.38000000
   C     96.97000000    75.27000000    37.61000000
   C     97.01000000    76.47000000    36.67000000
   C     97.85000000    74.21000000    36.96000000
   H     96.12000000    73.52000000    39.41000000
   H     95.21000000    74.35000000    36.75000000
   H     97.42000000    75.51000000    38.57000000
   H     96.53000000    76.31000000    35.71000000
   H     96.60000000    77.29000000    37.26000000
   H     98.03000000    76.85000000    36.66000000
   H     98.88000000    74.54000000    36.82000000
   H     97.82000000    73.24000000    37.46000000
   H     97.53000000    74.00000000    35.94000000
   N     93.75000000    76.13000000    37.24000000
   C     92.63000000    77.01000000    37.50000000
   C     91.43000000    76.26000000    38.06000000
   O     90.61000000    76.95000000    38.67000000
   C     92.28000000    77.68000000    36.17000000
   C     91.05000000    78.57000000    36.22000000
   N     90.01000000    78.15000000    35.49000000
   O     91.05000000    79.68000000    36.74000000
   H     93.89000000    75.68000000    36.35000000
   H     92.97000000    77.79000000    38.19000000
   H     92.20000000    76.97000000    35.35000000
   H     93.08000000    78.37000000    35.89000000
   H     89.99000000    77.18000000    35.19000000
   H     89.24000000    78.80000000    35.45000000
   N     91.36000000    74.93000000    38.02000000
   C     90.34000000    74.14000000    38.68000000
   C     90.29000000    74.30000000    40.19000000
   O     91.33000000    74.29000000    40.84000000
   C     90.27000000    72.68000000    38.23000000
   C     90.04000000    72.51000000    36.75000000
   C     91.03000000    71.97000000    35.91000000
   C     88.75000000    72.63000000    36.22000000
   C     90.81000000    71.75000000    34.54000000
   C     88.49000000    72.41000000    34.86000000
   C     89.49000000    71.86000000    34.04000000
   O     89.23000000    71.35000000    32.80000000
   H     92.07000000    74.41000000    37.53000000
   H     89.37000000    74.47000000    38.31000000
   H     89.44000000    72.14000000    38.68000000
   H     91.19000000    72.22000000    38.61000000
   H     91.99000000    71.70000000    36.31000000
   H     87.94000000    72.88000000    36.89000000
   H     91.66000000    71.40000000    33.97000000
   H     87.48000000    72.44000000    34.48000000
   H     90.02000000    70.86000000    32.61000000
   N     89.05000000    74.43000000    40.67000000
   C     88.78000000    74.66000000    42.08000000
   C     89.01000000    76.09000000    42.57000000
   O     88.42000000    76.55000000    43.54000000
   C     89.38000000    73.58000000    42.97000000
   C     89.01000000    72.16000000    42.56000000
   C     89.52000000    71.14000000    43.57000000
   O     90.73000000    70.93000000    43.34000000
   O     88.84000000    70.81000000    44.56000000
   H     88.29000000    74.06000000    40.11000000
   H     87.72000000    74.53000000    42.31000000
   H     88.92000000    73.62000000    43.95000000
   H     90.47000000    73.63000000    43.05000000
   H     89.47000000    71.96000000    41.59000000
   H     87.93000000    72.12000000    42.49000000
   N     89.95000000    76.84000000    41.99000000
   C     90.16000000    78.27000000    42.09000000
   C     89.03000000    79.11000000    41.51000000
   O     89.05000000    80.33000000    41.67000000
   C     91.53000000    78.61000000    41.53000000
   C     92.72000000    77.73000000    41.91000000
   C     93.17000000    77.93000000    43.35000000
   O     93.95000000    77.06000000    43.82000000
   O     92.89000000    78.89000000    44.10000000
   H     90.50000000    76.39000000    41.28000000
   H     90.23000000    78.52000000    43.15000000
   H     91.71000000    79.67000000    41.72000000
   H     91.43000000    78.49000000    40.45000000
   H     93.60000000    78.03000000    41.35000000
   H     92.45000000    76.70000000    41.67000000
   N     88.10000000    78.61000000    40.69000000
   C     86.90000000    79.36000000    40.37000000
   H     86.11300000    79.10600000    41.08000000
   H     87.11100000    80.42800000    40.42900000
   H     86.57200000    79.10900000    39.36100000
   H     88.09000000    77.60000000    40.64000000
  Ca     94.75000000    78.44000000    45.87000000
   O     94.04000000    80.76000000    47.26000000
   H     94.74000000    81.07000000    47.84000000
   H     93.29000000    81.32000000    47.46000000
   O     92.51000000    78.28000000    47.02000000
   H     92.04000000    78.46000000    47.84000000
   H     91.82000000    78.09000000    46.39000000
   O     95.21000000    78.53000000    48.55000000
   H     94.70000000    78.88000000    49.29000000
   H     96.02000000    79.03000000    48.56000000

Ca 1.00



