%chk=loop2.apoCaM-CA-Ng.Init295.run48.water6.chk
%nprocshared=20
%mem=10GB
%nosave
#b3lyp/svp scf=(tight,noincore,xqc) Test 
#IOP(5/87=12) Density=Current Pop=(MK,readradii) iop(6/33=2) iop(6/42=6)

loop2.apoCaM-CA-Ng.Init295.run48.water6 

   -2  1 
   C     94.16000000    60.05000000    23.69000000
   C     95.47000000    59.91000000    22.93000000
   O     95.82000000    60.82000000    22.18000000
   H     93.36800000    59.53400000    23.14600000
   H     94.26600000    59.61000000    24.68100000
   H     93.90600000    61.10600000    23.78600000
   N     96.20000000    58.80000000    23.08000000
   C     97.46000000    58.44000000    22.47000000
   C     98.71000000    59.10000000    23.05000000
   O     99.63000000    58.41000000    23.48000000
   C     97.47000000    56.95000000    22.15000000
   C     98.35000000    56.59000000    20.96000000
   O     99.37000000    55.87000000    21.05000000
   O     98.17000000    57.10000000    19.84000000
   H     95.86000000    58.08000000    23.70000000
   H     97.51000000    58.88000000    21.47000000
   H     96.49000000    56.62000000    21.81000000
   H     97.58000000    56.34000000    23.04000000
   N     98.75000000    60.44000000    23.09000000
   C     99.87000000    61.15000000    23.66000000
   C     99.50000000    62.60000000    23.94000000
   O     98.36000000    63.00000000    23.69000000
   C    101.01000000    61.14000000    22.65000000
   H     97.97000000    61.01000000    22.81000000
   H    100.14000000    60.69000000    24.61000000
   H    100.93000000    60.32000000    21.95000000
   H    100.98000000    62.01000000    21.99000000
   H    101.92000000    61.00000000    23.23000000
   N    100.30000000    63.54000000    24.46000000
   C    101.66000000    63.46000000    24.94000000
   C    101.80000000    62.47000000    26.08000000
   O    100.85000000    62.14000000    26.80000000
   C    102.09000000    64.86000000    25.37000000
   C    101.89000000    66.02000000    24.40000000
   O    102.40000000    67.13000000    24.64000000
   O    101.37000000    65.91000000    23.27000000
   H     99.88000000    64.45000000    24.54000000
   H    102.25000000    63.21000000    24.06000000
   H    103.16000000    64.73000000    25.55000000
   H    101.62000000    65.12000000    26.32000000
   N    103.04000000    62.09000000    26.40000000
   C    103.32000000    61.16000000    27.48000000
   C    102.86000000    59.74000000    27.19000000
   O    102.81000000    59.34000000    26.02000000
   H    103.79000000    62.39000000    25.80000000
   H    102.76000000    61.64000000    28.28000000
   H    104.36000000    61.35000000    27.76000000
   N    102.50000000    58.87000000    28.13000000
   C    102.59000000    59.04000000    29.56000000
   C    101.47000000    59.88000000    30.16000000
   O    101.32000000    59.92000000    31.38000000
   C    102.60000000    57.65000000    30.19000000
   C    103.65000000    56.65000000    29.74000000
   N    104.45000000    56.23000000    30.72000000
   O    103.59000000    56.06000000    28.66000000
   H    102.38000000    57.92000000    27.79000000
   H    103.54000000    59.51000000    29.81000000
   H    101.61000000    57.19000000    30.25000000
   H    102.69000000    57.85000000    31.26000000
   H    104.33000000    56.62000000    31.65000000
   H    105.01000000    55.40000000    30.58000000
   N    100.64000000    60.56000000    29.35000000
   C     99.44000000    61.26000000    29.77000000
   C     99.59000000    62.70000000    30.24000000
   O     99.08000000    63.14000000    31.28000000
   H    100.84000000    60.53000000    28.36000000
   H     98.96000000    60.70000000    30.56000000
   H     98.70000000    61.17000000    28.97000000
   N    100.39000000    63.38000000    29.43000000
   C    100.79000000    64.75000000    29.68000000
   C     99.77000000    65.73000000    29.13000000
   O    100.05000000    66.52000000    28.23000000
   C    102.24000000    64.99000000    29.25000000
   C    102.86000000    66.33000000    29.65000000
   O    102.97000000    63.96000000    29.87000000
   H    100.74000000    62.86000000    28.64000000
   H    100.73000000    64.98000000    30.74000000
   H    102.44000000    64.78000000    28.20000000
   H    103.83000000    63.80000000    29.48000000
   H    102.55000000    67.17000000    29.03000000
   H    102.52000000    66.65000000    30.64000000
   H    103.94000000    66.29000000    29.58000000
   N     98.51000000    65.49000000    29.50000000
   C     97.39000000    66.03000000    28.76000000
   C     97.05000000    67.43000000    29.26000000
   O     97.47000000    67.90000000    30.32000000
   C     96.19000000    65.09000000    28.85000000
   C     96.45000000    63.68000000    28.33000000
   C     95.61000000    64.90000000    30.24000000
   C     97.28000000    63.54000000    27.05000000
   H     98.39000000    64.99000000    30.37000000
   H     97.57000000    66.05000000    27.69000000
   H     95.40000000    65.44000000    28.18000000
   H     95.47000000    63.24000000    28.15000000
   H     97.02000000    63.00000000    28.96000000
   H     94.68000000    64.33000000    30.19000000
   H     96.36000000    64.40000000    30.85000000
   H     95.21000000    65.84000000    30.63000000
   H     98.24000000    64.04000000    27.04000000
   H     97.61000000    62.50000000    26.98000000
   H     96.56000000    63.82000000    26.28000000
   N     96.29000000    68.12000000    28.40000000
   C     95.92000000    69.51000000    28.54000000
   C     94.49000000    69.65000000    28.04000000
   O     94.13000000    69.01000000    27.05000000
   C     96.90000000    70.43000000    27.83000000
   C     97.40000000    70.06000000    26.44000000
   O     98.53000000    69.53000000    26.31000000
   O     96.66000000    70.32000000    25.48000000
   H     95.82000000    67.58000000    27.68000000
   H     95.89000000    69.77000000    29.60000000
   H     97.79000000    70.55000000    28.44000000
   H     96.35000000    71.37000000    27.75000000
   N     93.81000000    70.66000000    28.59000000
   C     92.43000000    70.95000000    28.26000000
   C     91.50000000    69.76000000    28.09000000
   O     91.58000000    68.80000000    28.86000000
   C     91.89000000    71.91000000    29.31000000
   C     90.50000000    72.48000000    29.17000000
   C     89.39000000    71.65000000    29.41000000
   C     90.22000000    73.74000000    28.63000000
   C     88.07000000    72.10000000    29.36000000
   C     88.91000000    74.23000000    28.56000000
   C     87.84000000    73.40000000    28.89000000
   H     94.27000000    71.20000000    29.31000000
   H     92.42000000    71.50000000    27.31000000
   H     92.59000000    72.74000000    29.31000000
   H     91.86000000    71.31000000    30.22000000
   H     89.59000000    70.65000000    29.76000000
   H     91.07000000    74.41000000    28.55000000
   H     87.25000000    71.44000000    29.60000000
   H     88.67000000    75.19000000    28.13000000
   H     86.82000000    73.71000000    28.68000000
   N     90.69000000    69.79000000    27.03000000
   C     89.63000000    68.81000000    26.96000000
   C     90.13000000    67.43000000    26.53000000
   O     89.31000000    66.54000000    26.38000000
   C     88.61000000    69.43000000    26.02000000
   C     89.49000000    70.21000000    25.04000000
   C     90.47000000    70.82000000    26.04000000
   H     89.14000000    68.79000000    27.93000000
   H     87.99000000    68.65000000    25.56000000
   H     87.90000000    70.05000000    26.56000000
   H     90.05000000    69.57000000    24.36000000
   H     88.87000000    70.91000000    24.48000000
   H     91.38000000    71.06000000    25.48000000
   H     90.10000000    71.68000000    26.59000000
   N     91.44000000    67.17000000    26.41000000
   C     91.88000000    65.80000000    26.30000000
   C     91.53000000    65.01000000    27.56000000
   O     91.22000000    63.83000000    27.47000000
   C     93.40000000    65.89000000    26.16000000
   C     93.86000000    66.40000000    24.80000000
   C     95.32000000    66.82000000    24.75000000
   O     96.20000000    66.37000000    25.52000000
   O     95.64000000    67.63000000    23.86000000
   H     92.11000000    67.93000000    26.47000000
   H     91.47000000    65.38000000    25.38000000
   H     93.87000000    64.91000000    26.25000000
   H     93.80000000    66.59000000    26.89000000
   H     93.32000000    67.29000000    24.49000000
   H     93.67000000    65.59000000    24.09000000
   N     91.58000000    65.63000000    28.74000000
   C     91.25000000    65.10000000    30.05000000
   H     90.21700000    64.75100000    30.05000000
   H     91.91400000    64.26800000    30.28400000
   H     91.36900000    65.88200000    30.80000000
   H     91.82000000    66.61000000    28.77000000
  Ca     97.85000000    68.78000000    23.74000000
   O     98.75000000    66.71000000    25.37000000
   H     99.17000000    66.87000000    26.21000000
   H     97.86000000    66.44000000    25.60000000
   O     98.94000000    66.59000000    22.45000000
   H     99.76000000    66.24000000    22.79000000
   H     98.53000000    65.85000000    22.01000000
   O     98.79000000    71.26000000    23.51000000
   H     99.73000000    71.35000000    23.42000000
   H     98.57000000    71.73000000    24.32000000
   O     96.26000000    70.31000000    21.82000000
   H     95.82000000    71.08000000    22.18000000
   H     96.23000000    70.44000000    20.88000000
   O    100.48300000    68.85000000    24.04000000
   H    100.98300000    69.62000000    24.29000000
   H    101.05300000    68.11000000    24.25000000
   O     99.11000000    68.89000000    20.88000000
   H     99.71000000    68.21000000    21.18000000
   H     99.36000000    69.04000000    19.97000000

Ca 1.00



