%chk=loop1.apoCaM-CA-Ng.Init295.run30.water4.chk
%nprocshared=20
%mem=10GB
%nosave
#b3lyp/svp scf=(tight,noincore,xqc) Test 
#IOP(5/87=12) Density=Current Pop=(MK,readradii) iop(6/33=2) iop(6/42=6)

loop1.apoCaM-CA-Ng.Init295.run30.water4 

   0  1 
   C     86.86000000    86.75000000    68.87000000
   C     87.43000000    87.98000000    68.16000000
   O     86.67000000    88.85000000    67.76000000
   H     85.86800000    86.53100000    68.47600000
   H     87.51500000    85.89500000    68.69900000
   H     86.79000000    86.94700000    69.94000000
   N     88.74000000    87.90000000    67.93000000
   C     89.58000000    88.80000000    67.16000000
   C     89.51000000    90.25000000    67.61000000
   O     88.81000000    91.04000000    66.98000000
   C     89.30000000    88.59000000    65.68000000
   C     90.26000000    89.26000000    64.71000000
   O     89.94000000    89.27000000    63.50000000
   O     91.34000000    89.77000000    65.07000000
   H     89.14000000    87.06000000    68.34000000
   H     90.64000000    88.59000000    67.31000000
   H     88.30000000    88.93000000    65.40000000
   H     89.27000000    87.52000000    65.48000000
   N     90.19000000    90.59000000    68.71000000
   C     90.17000000    91.95000000    69.22000000
   C     90.93000000    92.94000000    68.34000000
   O     90.41000000    94.03000000    68.13000000
   C     90.76000000    91.95000000    70.62000000
   C     89.92000000    91.11000000    71.57000000
   C     90.64000000    91.05000000    72.91000000
   C     89.78000000    90.30000000    73.92000000
   N     90.50000000    90.07000000    75.18000000
   H     90.89000000    89.94000000    69.01000000
   H     89.16000000    92.35000000    69.19000000
   H     90.96000000    92.96000000    70.99000000
   H     91.72000000    91.45000000    70.47000000
   H     89.70000000    90.10000000    71.23000000
   H     88.92000000    91.54000000    71.63000000
   H     90.74000000    92.07000000    73.28000000
   H     91.59000000    90.51000000    72.88000000
   H     89.52000000    89.31000000    73.55000000
   H     88.80000000    90.75000000    74.07000000
   H     90.84000000    90.93000000    75.59000000
   H     89.81000000    89.65000000    75.79000000
   H     91.24000000    89.39000000    75.06000000
   N     92.11000000    92.60000000    67.82000000
   C     93.05000000    93.41000000    67.07000000
   C     92.66000000    93.60000000    65.61000000
   O     93.10000000    94.57000000    64.99000000
   C     94.41000000    92.72000000    67.11000000
   C     95.64000000    93.61000000    67.04000000
   O     96.85000000    93.31000000    67.02000000
   O     95.54000000    94.85000000    66.95000000
   H     92.52000000    91.73000000    68.13000000
   H     93.15000000    94.37000000    67.58000000
   H     94.44000000    91.96000000    66.34000000
   H     94.46000000    92.11000000    68.02000000
   N     91.85000000    92.69000000    65.06000000
   C     91.36000000    92.69000000    63.70000000
   C     92.40000000    92.56000000    62.60000000
   O     92.06000000    92.30000000    61.45000000
   H     91.62000000    91.88000000    65.62000000
   H     90.74000000    93.58000000    63.56000000
   H     90.66000000    91.86000000    63.58000000
   N     93.69000000    92.80000000    62.85000000
   C     94.77000000    92.82000000    61.89000000
   C     95.95000000    91.95000000    62.27000000
   O     96.93000000    91.86000000    61.53000000
   C     95.25000000    94.27000000    61.78000000
   C     95.79000000    95.07000000    62.95000000
   O     95.89000000    94.48000000    64.05000000
   O     95.77000000    96.32000000    62.91000000
   H     93.86000000    93.16000000    63.78000000
   H     94.44000000    92.50000000    60.90000000
   H     94.34000000    94.74000000    61.43000000
   H     96.06000000    94.34000000    61.05000000
   N     95.89000000    91.25000000    63.41000000
   C     96.87000000    90.26000000    63.82000000
   C     96.63000000    89.68000000    65.21000000
   O     95.52000000    89.80000000    65.71000000
   H     95.05000000    91.43000000    63.94000000
   H     97.89000000    90.63000000    63.69000000
   H     96.81000000    89.43000000    63.12000000
   N     97.64000000    89.17000000    65.92000000
   C     97.47000000    88.34000000    67.10000000
   C     98.53000000    87.27000000    67.27000000
   O     99.70000000    87.63000000    67.35000000
   C     97.24000000    89.27000000    68.29000000
   C     96.49000000    88.58000000    69.43000000
   O     98.46000000    89.79000000    68.76000000
   H     98.57000000    89.38000000    65.60000000
   H     96.50000000    87.85000000    67.07000000
   H     96.70000000    90.17000000    67.98000000
   H     98.91000000    90.34000000    68.12000000
   H     96.34000000    89.31000000    70.22000000
   H     95.49000000    88.48000000    69.01000000
   H     96.84000000    87.62000000    69.82000000
   N     98.17000000    85.99000000    67.39000000
   C     99.18000000    84.97000000    67.55000000
   C     99.80000000    84.43000000    66.27000000
   O    100.65000000    83.54000000    66.32000000
   C     98.68000000    83.82000000    68.43000000
   C     97.36000000    83.21000000    67.97000000
   C     98.47000000    84.13000000    69.91000000
   C     97.19000000    82.93000000    66.48000000
   H     97.24000000    85.75000000    67.08000000
   H    100.03000000    85.41000000    68.07000000
   H     99.32000000    82.94000000    68.37000000
   H     96.54000000    83.86000000    68.30000000
   H     97.23000000    82.36000000    68.65000000
   H     99.45000000    84.10000000    70.40000000
   H     98.03000000    85.12000000    70.02000000
   H     97.85000000    83.40000000    70.44000000
   H     97.13000000    83.89000000    65.97000000
   H     98.04000000    82.33000000    66.16000000
   H     96.28000000    82.34000000    66.39000000
   N     99.45000000    84.97000000    65.09000000
   C     99.80000000    84.46000000    63.78000000
   C     98.51000000    84.06000000    63.08000000
   O     97.44000000    84.58000000    63.39000000
   C    100.55000000    85.47000000    62.92000000
   C    101.15000000    84.94000000    61.62000000
   O     99.72000000    86.57000000    62.64000000
   H     98.70000000    85.64000000    65.04000000
   H    100.31000000    83.53000000    64.03000000
   H    101.28000000    85.79000000    63.66000000
   H     99.94000000    87.33000000    63.19000000
   H    101.82000000    85.71000000    61.24000000
   H    101.83000000    84.11000000    61.80000000
   H    100.39000000    84.56000000    60.93000000
   N     98.63000000    83.15000000    62.11000000
   C     97.53000000    82.61000000    61.32000000
   C     97.22000000    81.20000000    61.81000000
   O     96.06000000    80.86000000    62.02000000
   C     97.84000000    82.58000000    59.83000000
   C     97.60000000    83.99000000    59.29000000
   O     97.05000000    81.74000000    59.02000000
   H     99.56000000    82.88000000    61.85000000
   H     96.69000000    83.27000000    61.48000000
   H     98.90000000    82.35000000    59.67000000
   H     97.59000000    81.64000000    58.23000000
   H     96.53000000    84.20000000    59.25000000
   H     98.01000000    84.67000000    60.04000000
   H     98.14000000    84.29000000    58.39000000
   N     98.24000000    80.38000000    62.08000000
   C     98.32000000    78.99000000    62.49000000
   C     97.73000000    78.83000000    63.88000000
   O     97.66000000    79.77000000    64.67000000
   C     99.78000000    78.58000000    62.37000000
   C    100.29000000    78.58000000    60.93000000
   C    101.76000000    78.22000000    60.74000000
   C    102.14000000    77.83000000    59.31000000
   N    103.52000000    77.35000000    59.24000000
   H     99.13000000    80.81000000    61.88000000
   H     97.68000000    78.37000000    61.87000000
   H     99.89000000    77.60000000    62.83000000
   H    100.35000000    79.37000000    62.87000000
   H     99.96000000    79.51000000    60.47000000
   H     99.68000000    77.77000000    60.52000000
   H    102.06000000    77.38000000    61.36000000
   H    102.43000000    79.01000000    61.09000000
   H    102.00000000    78.74000000    58.73000000
   H    101.50000000    77.02000000    58.96000000
   H    103.71000000    77.21000000    58.26000000
   H    104.16000000    78.07000000    59.57000000
   H    103.63000000    76.44000000    59.66000000
   N     97.39000000    77.59000000    64.26000000
   C     96.95000000    77.25000000    65.60000000
   C     95.77000000    76.29000000    65.47000000
   O     95.57000000    75.53000000    64.52000000
   C     98.08000000    76.61000000    66.40000000
   C     99.25000000    77.55000000    66.64000000
   C    100.44000000    76.76000000    67.17000000
   O    101.34000000    76.43000000    66.36000000
   O    100.43000000    76.44000000    68.37000000
   H     97.42000000    76.91000000    63.52000000
   H     96.66000000    78.16000000    66.13000000
   H     98.43000000    75.80000000    65.77000000
   H     97.70000000    76.20000000    67.34000000
   H     98.99000000    78.36000000    67.32000000
   H     99.52000000    77.97000000    65.67000000
   N     94.91000000    76.09000000    66.47000000
   C     94.71000000    76.92000000    67.64000000
   H     93.66800000    76.86100000    67.95300000
   H     95.35200000    76.57000000    68.44900000
   H     94.95900000    77.95400000    67.40000000
   H     94.14000000    75.47000000    66.28000000
  Ca     94.73000000    96.71000000    65.29000000
   O     92.58000000    97.33000000    63.93000000
   H     91.92000000    97.55000000    64.58000000
   H     92.14000000    96.73000000    63.33000000
   O     94.52000000    98.05000000    67.48000000
   H     93.70000000    98.55000000    67.46000000
   H     94.91000000    98.26000000    68.32000000
   O     94.84000000    99.20000000    64.27000000
   H     95.64000000    99.71000000    64.42000000
   H     94.34000000    99.71000000    63.64000000
   O     97.16000000    97.76000000    66.29000000
   H     97.50000000    98.58000000    66.66000000
   H     97.93000000    97.20000000    66.19000000

Ca 1.00



