%chk=loop4.holoCaM-CaMKII.run64.water2.chk
%nprocshared=20
%mem=10GB
%nosave
#b3lyp/svp scf=(tight,noincore,xqc) Test 
#IOP(5/87=12) Density=Current Pop=(MK,readradii) iop(6/33=2) iop(6/42=6)

loop4.holoCaM-CaMKII.run64.water2 

   -3  1 
   C     44.58000000    42.74000000    90.63100000
   C     45.28000000    42.03000000    89.48100000
   O     45.22000000    40.80000000    89.46100000
   H     43.57800000    42.32900000    90.75500000
   H     45.14900000    42.59400000    91.54900000
   H     44.51000000    43.80600000    90.41200000
   N     45.78000000    42.79000000    88.50100000
   C     46.70000000    42.21000000    87.54100000
   C     47.97000000    41.78000000    88.25100000
   O     48.71000000    42.59000000    88.81100000
   C     47.03000000    43.15000000    86.38100000
   C     48.07000000    42.79000000    85.32100000
   O     48.55000000    43.72000000    84.64100000
   O     48.31000000    41.57000000    85.24100000
   H     45.72000000    43.79000000    88.51100000
   H     46.22000000    41.32000000    87.13100000
   H     47.36000000    44.12000000    86.73100000
   H     46.08000000    43.34000000    85.88100000
   N     48.31000000    40.49000000    88.20100000
   C     49.45000000    39.89000000    88.88100000
   C     50.70000000    39.64000000    88.05100000
   O     51.73000000    39.26000000    88.60100000
   C     49.01000000    38.68000000    89.70100000
   C     48.79000000    37.49000000    88.78100000
   C     47.76000000    39.00000000    90.51100000
   C     49.06000000    36.19000000    89.53100000
   H     47.65000000    39.87000000    87.75100000
   H     49.74000000    40.58000000    89.67100000
   H     49.86000000    38.52000000    90.38100000
   H     49.54000000    37.48000000    87.98100000
   H     47.78000000    37.43000000    88.39100000
   H     47.65000000    38.22000000    91.26100000
   H     47.93000000    39.90000000    91.09100000
   H     46.83000000    38.98000000    89.93100000
   H     48.37000000    36.10000000    90.36100000
   H     48.85000000    35.37000000    88.84100000
   H     50.12000000    36.19000000    89.78100000
   N     50.57000000    39.86000000    86.74100000
   C     51.56000000    39.45000000    85.76100000
   C     51.81000000    40.45000000    84.65100000
   O     52.78000000    40.31000000    83.90100000
   C     51.22000000    38.07000000    85.20100000
   C     49.86000000    37.97000000    84.52100000
   O     49.24000000    38.98000000    84.13100000
   O     49.37000000    36.87000000    84.20100000
   H     49.64000000    40.01000000    86.39100000
   H     52.54000000    39.30000000    86.22100000
   H     51.24000000    37.38000000    86.05100000
   H     52.02000000    37.75000000    84.55100000
   N     51.16000000    41.62000000    84.67100000
   C     51.75000000    42.80000000    84.06100000
   C     51.46000000    42.90000000    82.57100000
   O     52.34000000    42.74000000    81.73100000
   H     50.39000000    41.83000000    85.29100000
   H     52.83000000    42.80000000    84.22100000
   H     51.36000000    43.62000000    84.66100000
   N     50.19000000    43.20000000    82.28100000
   C     49.68000000    43.43000000    80.95100000
   C     48.67000000    44.57000000    80.92100000
   O     48.08000000    44.84000000    79.88100000
   C     49.10000000    42.19000000    80.27100000
   C     48.21000000    41.38000000    81.20100000
   O     48.56000000    40.22000000    81.52100000
   O     47.17000000    41.85000000    81.71100000
   H     49.49000000    43.35000000    83.00100000
   H     50.55000000    43.70000000    80.35100000
   H     49.96000000    41.57000000    80.02100000
   H     48.60000000    42.44000000    79.33100000
   N     48.47000000    45.25000000    82.06100000
   C     47.47000000    46.27000000    82.29100000
   C     46.03000000    45.77000000    82.38100000
   O     45.10000000    46.57000000    82.41100000
   H     49.05000000    44.97000000    82.84100000
   H     47.36000000    47.02000000    81.51100000
   H     47.67000000    46.76000000    83.24100000
   N     45.75000000    44.46000000    82.45100000
   C     44.41000000    43.92000000    82.43100000
   C     44.22000000    42.78000000    83.41100000
   O     45.15000000    42.03000000    83.74100000
   C     44.09000000    43.43000000    81.02100000
   C     43.96000000    44.60000000    80.04100000
   C     43.17000000    44.25000000    78.79100000
   N     43.85000000    43.78000000    77.73100000
   O     41.97000000    44.47000000    78.62100000
   H     46.54000000    43.85000000    82.57100000
   H     43.71000000    44.71000000    82.72100000
   H     43.12000000    42.93000000    80.96100000
   H     44.88000000    42.78000000    80.65100000
   H     44.93000000    45.01000000    79.76100000
   H     43.44000000    45.45000000    80.46100000
   H     44.86000000    43.76000000    77.78100000
   H     43.33000000    43.78000000    76.87100000
   N     43.02000000    42.64000000    83.98100000
   C     42.56000000    41.68000000    84.96100000
   C     41.67000000    40.68000000    84.24100000
   O     40.68000000    41.13000000    83.67100000
   C     41.75000000    42.44000000    86.01100000
   C     41.03000000    41.56000000    87.03100000
   C     42.70000000    43.28000000    86.86100000
   H     42.42000000    43.45000000    83.92100000
   H     43.40000000    41.14000000    85.40100000
   H     41.12000000    43.12000000    85.44100000
   H     40.76000000    42.35000000    87.74100000
   H     40.22000000    41.08000000    86.49100000
   H     41.69000000    40.79000000    87.41100000
   H     43.39000000    43.79000000    86.19100000
   H     42.12000000    44.06000000    87.35100000
   H     43.25000000    42.73000000    87.62100000
   N     41.98000000    39.38000000    84.31100000
   C     41.11000000    38.32000000    83.85100000
   C     40.33000000    37.64000000    84.96100000
   O     40.51000000    37.99000000    86.13100000
   C     41.95000000    37.34000000    83.03100000
   C     42.50000000    36.21000000    83.90100000
   N     43.77000000    36.36000000    84.27100000
   O     41.91000000    35.15000000    84.10100000
   H     42.89000000    39.13000000    84.67100000
   H     40.36000000    38.64000000    83.13100000
   H     42.76000000    37.83000000    82.50100000
   H     41.35000000    36.82000000    82.28100000
   H     44.11000000    37.31000000    84.31100000
   H     44.33000000    35.66000000    84.74100000
   N     39.36000000    36.77000000    84.67100000
   C     38.53000000    36.14000000    85.67100000
   C     39.28000000    35.35000000    86.74100000
   O     38.84000000    35.42000000    87.88100000
   C     37.56000000    35.18000000    84.99100000
   C     36.59000000    34.43000000    85.86100000
   C     35.64000000    35.18000000    86.56100000
   C     36.67000000    33.03000000    85.95100000
   C     34.79000000    34.55000000    87.47100000
   C     35.61000000    32.42000000    86.63100000
   C     34.71000000    33.14000000    87.45100000
   O     33.81000000    32.47000000    88.21100000
   H     39.22000000    36.50000000    83.71100000
   H     37.93000000    36.90000000    86.17100000
   H     38.13000000    34.40000000    84.49100000
   H     37.05000000    35.71000000    84.18100000
   H     35.63000000    36.26000000    86.52100000
   H     37.25000000    32.44000000    85.26100000
   H     34.21000000    35.04000000    88.23100000
   H     35.62000000    31.34000000    86.69100000
   H     33.84000000    31.52000000    88.04100000
   N     40.42000000    34.69000000    86.51100000
   C     41.20000000    33.98000000    87.50100000
   C     41.97000000    34.93000000    88.41100000
   O     42.26000000    34.61000000    89.56100000
   C     42.04000000    32.99000000    86.69100000
   C     42.82000000    32.04000000    87.60100000
   C     41.90000000    31.00000000    88.23100000
   O     41.70000000    30.94000000    89.46100000
   O     41.36000000    30.17000000    87.47100000
   H     40.84000000    34.82000000    85.61100000
   H     40.59000000    33.37000000    88.18100000
   H     42.75000000    33.49000000    86.03100000
   H     41.28000000    32.48000000    86.09100000
   H     43.44000000    32.61000000    88.29100000
   H     43.49000000    31.53000000    86.91100000
   N     42.33000000    36.12000000    87.91100000
   C     42.74000000    37.31000000    88.63100000
   C     41.63000000    37.77000000    89.56100000
   O     42.01000000    38.19000000    90.65100000
   C     43.35000000    38.31000000    87.64100000
   C     44.76000000    37.92000000    87.19100000
   C     45.34000000    38.78000000    86.07100000
   O     46.47000000    39.27000000    86.27100000
   O     44.74000000    38.90000000    84.98100000
   H     41.96000000    36.27000000    86.99100000
   H     43.51000000    36.92000000    89.30100000
   H     43.35000000    39.29000000    88.11100000
   H     42.64000000    38.48000000    86.84100000
   H     44.70000000    36.86000000    86.94100000
   H     45.45000000    37.95000000    88.03100000
   N     40.37000000    37.79000000    89.10100000
   C     39.31000000    38.36000000    89.90100000
   H     38.41100000    37.75200000    89.79900000
   H     39.61500000    38.38300000    90.94700000
   H     39.10200000    39.37400000    89.56100000
   H     40.24000000    37.39000000    88.19100000
  Ca     46.92000000    40.04000000    83.80000000
   O     45.13000000    39.97000000    81.67000000
   H     45.22000000    39.66000000    80.77000000
   H     45.33000000    40.90000000    81.63000000
   O     47.06000000    37.32000000    83.16000000
   H     47.88000000    37.07000000    83.59000000
   H     46.56000000    36.51000000    83.09000000

Ca 1.00



