%chk=loop3.apoCaM-CA-Ng.Init293.run83.water5.chk
%nprocshared=20
%mem=10GB
%nosave
#b3lyp/svp scf=(tight,noincore,xqc) Test 
#IOP(5/87=12) Density=Current Pop=(MK,readradii) iop(6/33=2) iop(6/42=6)

loop3.apoCaM-CA-Ng.Init293.run83.water5 

   0  1 
   C     56.25000000    67.20000000    40.31000000
   C     56.56000000    66.25000000    41.46000000
   O     57.74000000    66.08000000    41.72000000
   H     55.42000000    67.84900000    40.58900000
   H     57.12800000    67.80800000    40.09300000
   H     55.97900000    66.62400000    39.42500000
   N     55.56000000    65.69000000    42.14000000
   C     55.73000000    64.67000000    43.16000000
   C     56.05000000    65.26000000    44.53000000
   O     55.48000000    66.28000000    44.91000000
   C     54.58000000    63.67000000    43.24000000
   C     54.36000000    62.89000000    41.95000000
   O     55.24000000    62.30000000    41.29000000
   O     53.19000000    62.95000000    41.50000000
   H     54.61000000    66.03000000    42.12000000
   H     56.64000000    64.14000000    42.88000000
   H     53.65000000    64.19000000    43.45000000
   H     54.87000000    62.94000000    43.99000000
   N     57.04000000    64.69000000    45.21000000
   C     57.11000000    64.54000000    46.65000000
   C     55.81000000    64.14000000    47.34000000
   O     54.72000000    64.21000000    46.78000000
   C     57.52000000    65.93000000    47.13000000
   C     58.43000000    65.73000000    48.33000000
   C     58.64000000    67.06000000    49.05000000
   C     57.36000000    67.50000000    49.76000000
   N     57.06000000    66.71000000    50.96000000
   H     57.56000000    64.01000000    44.67000000
   H     57.95000000    63.85000000    46.76000000
   H     56.71000000    66.57000000    47.48000000
   H     57.95000000    66.56000000    46.34000000
   H     59.38000000    65.33000000    47.98000000
   H     58.03000000    64.97000000    49.01000000
   H     58.71000000    67.72000000    48.19000000
   H     59.57000000    67.05000000    49.62000000
   H     56.49000000    67.40000000    49.12000000
   H     57.49000000    68.53000000    50.10000000
   H     56.70000000    65.77000000    50.84000000
   H     57.87000000    66.55000000    51.55000000
   H     56.45000000    67.25000000    51.57000000
   N     55.96000000    63.66000000    48.58000000
   C     54.86000000    63.22000000    49.42000000
   C     54.04000000    64.35000000    50.03000000
   O     54.56000000    65.41000000    50.36000000
   C     55.30000000    62.33000000    50.58000000
   C     56.35000000    62.92000000    51.52000000
   O     57.08000000    63.87000000    51.17000000
   O     56.61000000    62.34000000    52.59000000
   H     56.80000000    63.70000000    49.13000000
   H     54.20000000    62.54000000    48.89000000
   H     55.80000000    61.51000000    50.06000000
   H     54.46000000    61.95000000    51.15000000
   N     52.72000000    64.17000000    50.21000000
   C     51.78000000    65.07000000    50.84000000
   C     51.29000000    66.29000000    50.07000000
   O     51.76000000    66.77000000    49.04000000
   H     52.23000000    63.37000000    49.83000000
   H     52.17000000    65.42000000    51.79000000
   H     50.91000000    64.43000000    51.02000000
   N     50.12000000    66.77000000    50.52000000
   C     49.37000000    67.90000000    50.00000000
   C     48.55000000    68.61000000    51.07000000
   O     48.21000000    67.93000000    52.04000000
   C     48.44000000    67.35000000    48.93000000
   C     47.75000000    68.44000000    48.12000000
   N     46.54000000    68.06000000    47.67000000
   O     48.16000000    69.59000000    48.13000000
   H     49.68000000    66.28000000    51.28000000
   H     50.11000000    68.58000000    49.57000000
   H     47.73000000    66.62000000    49.32000000
   H     49.13000000    66.77000000    48.32000000
   H     46.25000000    67.10000000    47.69000000
   H     45.99000000    68.76000000    47.20000000
   N     48.32000000    69.92000000    50.99000000
   C     47.43000000    70.70000000    51.82000000
   C     47.99000000    70.98000000    53.20000000
   O     48.24000000    72.12000000    53.59000000
   H     48.44000000    70.36000000    50.09000000
   H     46.41000000    70.32000000    51.91000000
   H     47.41000000    71.64000000    51.27000000
   N     48.23000000    69.90000000    53.95000000
   C     48.89000000    69.87000000    55.25000000
   C     50.14000000    70.72000000    55.38000000
   O     49.97000000    71.86000000    55.79000000
   C     47.85000000    70.01000000    56.36000000
   C     48.26000000    69.48000000    57.71000000
   C     48.53000000    68.11000000    57.83000000
   C     48.40000000    70.38000000    58.78000000
   C     49.01000000    67.68000000    59.07000000
   C     48.78000000    69.89000000    60.03000000
   C     49.14000000    68.54000000    60.18000000
   O     49.58000000    67.92000000    61.31000000
   H     48.00000000    69.01000000    53.55000000
   H     49.23000000    68.83000000    55.28000000
   H     46.90000000    69.48000000    56.23000000
   H     47.59000000    71.06000000    56.34000000
   H     48.31000000    67.43000000    57.02000000
   H     48.26000000    71.45000000    58.63000000
   H     49.36000000    66.67000000    59.18000000
   H     48.79000000    70.59000000    60.86000000
   H     49.49000000    68.49000000    62.08000000
   N     51.32000000    70.24000000    54.98000000
   C     52.47000000    71.04000000    54.62000000
   C     53.21000000    71.84000000    55.68000000
   O     54.37000000    71.57000000    55.98000000
   C     52.26000000    71.78000000    53.30000000
   C     51.71000000    70.82000000    52.25000000
   C     53.60000000    72.32000000    52.80000000
   C     52.52000000    69.66000000    51.69000000
   H     51.33000000    69.34000000    54.51000000
   H     53.15000000    70.21000000    54.39000000
   H     51.58000000    72.61000000    53.47000000
   H     51.32000000    71.45000000    51.45000000
   H     50.74000000    70.45000000    52.61000000
   H     53.44000000    72.72000000    51.80000000
   H     53.94000000    73.16000000    53.40000000
   H     54.43000000    71.61000000    52.86000000
   H     51.90000000    69.07000000    51.00000000
   H     53.44000000    69.97000000    51.20000000
   H     52.83000000    68.98000000    52.49000000
   N     52.55000000    72.86000000    56.23000000
   C     53.11000000    73.59000000    57.35000000
   C     54.47000000    74.16000000    56.97000000
   O     55.39000000    74.06000000    57.78000000
   C     52.17000000    74.73000000    57.74000000
   O     51.86000000    75.57000000    56.65000000
   H     51.55000000    72.84000000    56.16000000
   H     53.21000000    72.95000000    58.23000000
   H     52.68000000    75.25000000    58.55000000
   H     51.25000000    74.32000000    58.15000000
   H     51.08000000    75.27000000    56.17000000
   N     54.56000000    74.69000000    55.75000000
   C     55.83000000    75.16000000    55.23000000
   C     57.09000000    74.34000000    55.42000000
   O     58.20000000    74.85000000    55.53000000
   C     55.97000000    76.59000000    55.76000000
   H     53.68000000    74.66000000    55.26000000
   H     55.76000000    75.41000000    54.17000000
   H     56.89000000    77.00000000    55.36000000
   H     55.18000000    77.26000000    55.41000000
   H     56.04000000    76.60000000    56.85000000
   N     56.93000000    73.01000000    55.44000000
   C     58.01000000    72.04000000    55.52000000
   C     58.48000000    71.53000000    54.17000000
   O     57.64000000    71.46000000    53.27000000
   C     57.65000000    70.96000000    56.54000000
   H     56.04000000    72.55000000    55.36000000
   H     58.89000000    72.51000000    55.95000000
   H     56.93000000    71.35000000    57.26000000
   H     57.13000000    70.18000000    55.99000000
   H     58.60000000    70.65000000    56.97000000
   N     59.71000000    71.05000000    53.99000000
   C     60.37000000    70.51000000    52.82000000
   C     60.35000000    71.35000000    51.54000000
   O     60.71000000    70.87000000    50.47000000
   C     59.97000000    69.05000000    52.62000000
   C     60.13000000    68.09000000    53.79000000
   C     59.55000000    66.71000000    53.52000000
   O     59.10000000    66.04000000    54.48000000
   O     59.45000000    66.22000000    52.38000000
   H     60.34000000    71.17000000    54.78000000
   H     61.40000000    70.53000000    53.15000000
   H     60.78000000    68.78000000    51.95000000
   H     59.03000000    68.95000000    52.07000000
   H     59.70000000    68.49000000    54.71000000
   H     61.18000000    67.93000000    54.03000000
   N     59.97000000    72.62000000    51.67000000
   C     59.79000000    73.55000000    50.58000000
   H     59.05700000    74.30500000    50.86500000
   H     60.74000000    74.03400000    50.35400000
   H     59.43600000    73.01400000    49.69900000
   H     59.53000000    72.94000000    52.52000000
  Ca     58.76000000    63.81000000    53.20000000
   O     58.47000000    62.62000000    55.65000000
   H     59.15000000    62.27000000    56.22000000
   H     57.69000000    62.10000000    55.86000000
   O     60.06000000    63.08000000    50.97000000
   H     59.78000000    62.44000000    50.32000000
   H     60.88000000    63.43000000    50.63000000
   O     61.30000000    63.84000000    54.04000000
   H     61.78000000    63.29000000    54.66000000
   H     61.99000000    64.29000000    53.54000000
   O     55.91000000    65.39000000    53.66000000
   H     55.98000000    65.23000000    54.60000000
   H     55.08000000    64.98000000    53.41000000
   O     59.30000000    61.12000000    53.09000000
   H     58.43000000    60.71000000    53.07000000
   H     59.91000000    60.38000000    53.06000000

Ca 1.00



