%chk=loop4.apoCaM-CA-Ng.Init31.run80.water4.chk
%nprocshared=20
%mem=10GB
%nosave
#b3lyp/svp scf=(tight,noincore,xqc) Test 
#IOP(5/87=12) Density=Current Pop=(MK,readradii) iop(6/33=2) iop(6/42=6)

loop4.apoCaM-CA-Ng.Init31.run80.water4 

   -3  1 
   C     85.98000000    47.19000000    30.12000000
   C     86.13000000    48.28000000    29.06000000
   O     85.10000000    48.90000000    28.82000000
   H     84.94000000    46.86600000    30.16300000
   H     86.61400000    46.34200000    29.86200000
   H     86.27700000    47.58400000    31.09200000
   N     87.22000000    48.58000000    28.35000000
   C     88.55000000    48.11000000    28.67000000
   C     89.25000000    48.95000000    29.74000000
   O     90.28000000    48.58000000    30.28000000
   C     89.36000000    48.20000000    27.38000000
   C     90.68000000    47.46000000    27.59000000
   O     91.75000000    48.05000000    27.33000000
   O     90.67000000    46.35000000    28.16000000
   H     87.11000000    49.27000000    27.62000000
   H     88.51000000    47.06000000    28.95000000
   H     89.49000000    49.27000000    27.22000000
   H     88.79000000    47.69000000    26.60000000
   N     88.70000000    50.13000000    30.06000000
   C     88.96000000    51.01000000    31.18000000
   C     89.85000000    52.17000000    30.75000000
   O     90.73000000    52.53000000    31.53000000
   C     87.71000000    51.46000000    31.93000000
   C     87.97000000    52.37000000    33.13000000
   C     86.71000000    52.08000000    30.97000000
   C     87.30000000    51.90000000    34.42000000
   H     87.88000000    50.37000000    29.51000000
   H     89.66000000    50.52000000    31.86000000
   H     87.26000000    50.53000000    32.28000000
   H     87.83000000    53.42000000    32.91000000
   H     89.03000000    52.22000000    33.34000000
   H     87.03000000    53.02000000    30.51000000
   H     86.65000000    51.34000000    30.17000000
   H     85.84000000    52.28000000    31.61000000
   H     87.72000000    52.49000000    35.24000000
   H     86.26000000    52.25000000    34.45000000
   H     87.44000000    50.83000000    34.53000000
   N     89.49000000    52.84000000    29.65000000
   C     89.85000000    54.24000000    29.54000000
   C     91.32000000    54.55000000    29.32000000
   O     91.69000000    55.71000000    29.50000000
   C     88.94000000    54.89000000    28.51000000
   C     89.17000000    56.38000000    28.27000000
   O     89.18000000    57.08000000    29.30000000
   O     89.51000000    56.88000000    27.17000000
   H     88.77000000    52.47000000    29.05000000
   H     89.67000000    54.71000000    30.51000000
   H     87.87000000    54.77000000    28.67000000
   H     89.18000000    54.48000000    27.53000000
   N     92.10000000    53.52000000    28.97000000
   C     93.44000000    53.70000000    28.44000000
   C     93.49000000    53.96000000    26.94000000
   O     92.59000000    53.67000000    26.16000000
   H     91.74000000    52.59000000    29.14000000
   H     94.14000000    52.89000000    28.62000000
   H     93.87000000    54.50000000    29.04000000
   N     94.62000000    54.55000000    26.55000000
   C     94.92000000    55.00000000    25.20000000
   C     95.43000000    56.44000000    25.18000000
   O     95.98000000    56.92000000    26.17000000
   C     95.78000000    54.01000000    24.42000000
   C     97.02000000    53.52000000    25.16000000
   O     98.13000000    53.97000000    24.82000000
   O     96.99000000    52.50000000    25.89000000
   H     95.15000000    54.96000000    27.30000000
   H     93.95000000    54.92000000    24.71000000
   H     96.02000000    54.34000000    23.42000000
   H     95.18000000    53.11000000    24.29000000
   N     95.31000000    57.22000000    24.11000000
   C     94.36000000    57.05000000    23.02000000
   C     94.52000000    58.06000000    21.89000000
   O     94.43000000    59.24000000    22.20000000
   H     95.63000000    58.17000000    24.28000000
   H     93.37000000    57.07000000    23.47000000
   H     94.52000000    56.03000000    22.66000000
   N     94.64000000    57.81000000    20.59000000
   C     94.64000000    56.54000000    19.88000000
   C     93.43000000    55.66000000    20.15000000
   O     92.66000000    55.90000000    21.07000000
   C     95.96000000    55.85000000    20.22000000
   C     97.26000000    56.50000000    19.77000000
   C     98.39000000    55.53000000    20.07000000
   N     98.81000000    54.66000000    19.14000000
   O     98.85000000    55.42000000    21.20000000
   H     94.79000000    58.66000000    20.07000000
   H     94.71000000    56.75000000    18.82000000
   H     95.90000000    54.82000000    19.86000000
   H     96.03000000    55.77000000    21.31000000
   H     97.52000000    57.35000000    20.41000000
   H     97.29000000    56.75000000    18.71000000
   H     98.46000000    54.81000000    18.21000000
   H     99.42000000    53.88000000    19.37000000
   N     93.25000000    54.54000000    19.44000000
   C     92.30000000    53.46000000    19.59000000
   C     91.70000000    52.96000000    18.28000000
   O     92.29000000    53.17000000    17.23000000
   C     92.96000000    52.35000000    20.41000000
   C     93.49000000    52.63000000    21.82000000
   C     94.12000000    51.62000000    19.75000000
   H     93.92000000    54.46000000    18.68000000
   H     91.48000000    53.88000000    20.17000000
   H     92.18000000    51.59000000    20.44000000
   H     92.61000000    52.84000000    22.44000000
   H     94.01000000    51.79000000    22.26000000
   H     94.20000000    53.45000000    21.90000000
   H     94.92000000    52.34000000    19.61000000
   H     94.35000000    50.79000000    20.43000000
   H     93.81000000    51.29000000    18.76000000
   N     90.53000000    52.36000000    18.51000000
   C     89.69000000    51.79000000    17.48000000
   C     90.06000000    50.33000000    17.26000000
   O     89.36000000    49.69000000    16.48000000
   C     88.25000000    52.09000000    17.88000000
   C     87.13000000    52.05000000    16.86000000
   N     87.25000000    51.32000000    15.75000000
   O     86.18000000    52.83000000    16.91000000
   H     90.21000000    52.30000000    19.47000000
   H     89.91000000    52.32000000    16.55000000
   H     88.23000000    53.02000000    18.44000000
   H     87.97000000    51.39000000    18.67000000
   H     88.13000000    50.84000000    15.63000000
   H     86.60000000    51.36000000    14.98000000
   N     90.97000000    49.62000000    17.94000000
   C     91.31000000    48.22000000    17.77000000
   C     91.52000000    47.55000000    19.11000000
   O     91.45000000    48.18000000    20.17000000
   C     92.45000000    48.05000000    16.77000000
   C     93.76000000    48.77000000    16.99000000
   C     94.62000000    48.42000000    18.04000000
   C     94.02000000    49.91000000    16.21000000
   C     95.84000000    49.08000000    18.19000000
   C     95.17000000    50.68000000    16.41000000
   C     96.11000000    50.17000000    17.33000000
   O     97.28000000    50.84000000    17.54000000
   H     91.48000000    50.19000000    18.60000000
   H     90.45000000    47.73000000    17.31000000
   H     92.05000000    48.32000000    15.80000000
   H     92.68000000    46.99000000    16.73000000
   H     94.42000000    47.59000000    18.70000000
   H     93.35000000    50.22000000    15.42000000
   H     96.54000000    48.75000000    18.93000000
   H     95.43000000    51.48000000    15.74000000
   H     97.82000000    50.42000000    18.22000000
   N     91.81000000    46.24000000    19.13000000
   C     91.95000000    45.47000000    20.35000000
   C     90.57000000    45.27000000    20.97000000
   O     89.68000000    44.89000000    20.22000000
   C     92.55000000    44.12000000    19.97000000
   C     93.31000000    43.53000000    21.15000000
   C     94.13000000    42.33000000    20.71000000
   O     93.68000000    41.24000000    21.13000000
   O     95.22000000    42.52000000    20.13000000
   H     91.80000000    45.76000000    18.24000000
   H     92.60000000    46.02000000    21.03000000
   H     93.31000000    44.24000000    19.19000000
   H     91.83000000    43.52000000    19.43000000
   H     92.68000000    43.26000000    22.00000000
   H     93.95000000    44.30000000    21.57000000
   N     90.44000000    45.46000000    22.29000000
   C     89.22000000    45.27000000    23.05000000
   C     88.47000000    46.57000000    22.80000000
   O     88.02000000    47.23000000    23.73000000
   C     89.47000000    44.98000000    24.52000000
   C     90.36000000    43.75000000    24.73000000
   C     90.49000000    43.31000000    26.18000000
   O     89.58000000    43.49000000    27.03000000
   O     91.57000000    43.03000000    26.73000000
   H     91.32000000    45.73000000    22.70000000
   H     88.62000000    44.45000000    22.64000000
   H     88.51000000    44.81000000    25.01000000
   H     89.88000000    45.91000000    24.91000000
   H     91.39000000    43.77000000    24.37000000
   H     89.88000000    42.89000000    24.26000000
   N     88.27000000    46.98000000    21.54000000
   C     87.49000000    48.13000000    21.14000000
   H     86.56200000    48.15500000    21.71100000
   H     88.05800000    49.04000000    21.33200000
   H     87.26100000    48.06200000    20.07700000
   H     88.66000000    46.32000000    20.89000000
  Ca     90.88000000    44.05000000    29.19000000
   O     90.30000000    41.37000000    29.11000000
   H     90.54000000    40.80000000    29.84000000
   H     90.20000000    40.78000000    28.36000000
   O     93.61000000    44.34000000    28.22000000
   H     93.68000000    43.96000000    27.35000000
   H     94.49000000    44.26000000    28.59000000
   O     91.89000000    46.05000000    30.73000000
   H     91.65000000    46.39000000    31.59000000
   H     92.11000000    46.82000000    30.21000000
   O     92.71000000    42.29000000    30.26000000
   H     93.55000000    42.67000000    30.54000000
   H     92.93000000    41.40000000    29.99000000

Ca 1.00



