%chk=loop3.holoCaM-CaMKII.run95.water2.chk
%nprocshared=20
%mem=10GB
%nosave
#b3lyp/svp scf=(tight,noincore,xqc) Test 
#IOP(5/87=12) Density=Current Pop=(MK,readradii) iop(6/33=2) iop(6/42=6)

loop3.holoCaM-CaMKII.run95.water2 

   0  1 
   C     46.89000000    20.25000000     2.84000000
   C     46.71000000    20.52000000     4.33000000
   O     46.94000000    19.64000000     5.15000000
   H     47.94500000    20.07700000     2.62700000
   H     46.31400000    19.36900000     2.55800000
   H     46.54100000    21.11100000     2.26900000
   N     46.33000000    21.73000000     4.75000000
   C     45.78000000    21.95000000     6.07000000
   C     44.31000000    21.58000000     6.11000000
   O     43.60000000    22.10000000     5.26000000
   C     46.27000000    23.33000000     6.52000000
   C     45.82000000    23.58000000     7.95000000
   O     45.75000000    24.72000000     8.47000000
   O     45.35000000    22.65000000     8.64000000
   H     46.09000000    22.43000000     4.06000000
   H     46.29000000    21.26000000     6.75000000
   H     45.86000000    24.13000000     5.90000000
   H     47.34000000    23.42000000     6.37000000
   N     43.89000000    20.75000000     7.07000000
   C     42.58000000    20.15000000     6.97000000
   C     41.58000000    20.77000000     7.94000000
   O     40.42000000    20.92000000     7.56000000
   C     42.73000000    18.65000000     7.18000000
   C     41.38000000    17.94000000     7.24000000
   C     41.75000000    16.46000000     7.14000000
   C     40.55000000    15.57000000     7.41000000
   N     40.76000000    14.16000000     7.06000000
   H     44.57000000    20.39000000     7.74000000
   H     42.11000000    20.25000000     5.99000000
   H     43.36000000    18.49000000     8.05000000
   H     43.35000000    18.25000000     6.38000000
   H     40.82000000    18.20000000     6.34000000
   H     40.80000000    18.18000000     8.13000000
   H     42.58000000    16.22000000     7.81000000
   H     42.05000000    16.23000000     6.12000000
   H     39.67000000    15.97000000     6.90000000
   H     40.34000000    15.64000000     8.48000000
   H     40.06000000    13.66000000     7.59000000
   H     40.58000000    13.83000000     6.12000000
   H     41.62000000    13.87000000     7.50000000
   N     42.03000000    21.10000000     9.15000000
   C     41.18000000    21.95000000     9.96000000
   C     41.21000000    23.39000000     9.48000000
   O     40.17000000    24.05000000     9.52000000
   C     41.41000000    21.90000000    11.47000000
   C     42.75000000    22.30000000    12.07000000
   O     42.96000000    22.27000000    13.31000000
   O     43.63000000    22.64000000    11.26000000
   H     43.03000000    20.99000000     9.31000000
   H     40.13000000    21.65000000     9.88000000
   H     41.06000000    20.93000000    11.82000000
   H     40.62000000    22.51000000    11.91000000
   N     42.34000000    23.94000000     9.04000000
   C     42.41000000    25.35000000     8.71000000
   C     43.13000000    26.22000000     9.74000000
   O     43.17000000    27.44000000     9.63000000
   H     43.20000000    23.43000000     9.20000000
   H     41.45000000    25.81000000     8.46000000
   H     43.04000000    25.35000000     7.82000000
   N     43.83000000    25.63000000    10.71000000
   C     44.50000000    26.37000000    11.76000000
   C     45.77000000    27.11000000    11.38000000
   O     46.30000000    27.85000000    12.21000000
   C     44.63000000    25.42000000    12.96000000
   C     45.92000000    24.63000000    12.85000000
   N     46.64000000    24.48000000    13.97000000
   O     46.25000000    24.02000000    11.84000000
   H     43.97000000    24.63000000    10.68000000
   H     43.79000000    27.08000000    12.17000000
   H     43.79000000    24.76000000    13.16000000
   H     44.67000000    25.94000000    13.92000000
   H     46.35000000    24.93000000    14.82000000
   H     47.48000000    23.92000000    13.84000000
   N     46.19000000    26.80000000    10.15000000
   C     47.30000000    27.43000000     9.46000000
   C     48.55000000    26.57000000     9.43000000
   O     49.57000000    27.18000000     9.11000000
   H     45.61000000    26.15000000     9.64000000
   H     47.52000000    28.36000000     9.98000000
   H     47.00000000    27.80000000     8.48000000
   N     48.40000000    25.27000000     9.70000000
   C     49.51000000    24.34000000     9.79000000
   C     49.14000000    22.93000000     9.34000000
   O     48.05000000    22.41000000     9.60000000
   C     49.76000000    24.24000000    11.29000000
   C     50.30000000    25.43000000    12.04000000
   C     51.65000000    25.56000000    12.40000000
   C     49.42000000    26.46000000    12.41000000
   C     52.14000000    26.63000000    13.16000000
   C     49.84000000    27.48000000    13.27000000
   C     51.20000000    27.58000000    13.60000000
   O     51.69000000    28.76000000    14.08000000
   H     47.47000000    24.92000000     9.88000000
   H     50.39000000    24.74000000     9.30000000
   H     50.45000000    23.40000000    11.34000000
   H     48.80000000    24.02000000    11.76000000
   H     52.30000000    24.81000000    11.98000000
   H     48.35000000    26.39000000    12.30000000
   H     53.19000000    26.76000000    13.37000000
   H     49.18000000    28.33000000    13.41000000
   H     52.62000000    28.77000000    14.31000000
   N     50.04000000    22.32000000     8.57000000
   C     49.85000000    20.97000000     8.09000000
   C     50.43000000    20.04000000     9.16000000
   O     51.63000000    20.15000000     9.38000000
   C     50.49000000    20.80000000     6.72000000
   C     50.03000000    21.92000000     5.78000000
   C     50.29000000    19.41000000     6.12000000
   C     50.78000000    22.12000000     4.47000000
   H     50.86000000    22.82000000     8.24000000
   H     48.79000000    20.74000000     8.06000000
   H     51.57000000    20.84000000     6.82000000
   H     50.03000000    22.90000000     6.25000000
   H     48.99000000    21.67000000     5.58000000
   H     50.60000000    18.68000000     6.87000000
   H     49.24000000    19.18000000     5.93000000
   H     50.90000000    19.25000000     5.23000000
   H     51.75000000    22.61000000     4.58000000
   H     50.73000000    21.22000000     3.87000000
   H     50.20000000    22.86000000     3.92000000
   N     49.64000000    19.13000000     9.73000000
   C     50.19000000    17.91000000    10.28000000
   C     50.31000000    16.81000000     9.24000000
   O     49.59000000    16.74000000     8.25000000
   C     49.52000000    17.37000000    11.54000000
   O     50.33000000    16.51000000    12.30000000
   H     48.64000000    19.18000000     9.63000000
   H     51.22000000    18.16000000    10.56000000
   H     48.53000000    16.94000000    11.37000000
   H     49.37000000    18.27000000    12.15000000
   H     49.78000000    15.95000000    12.85000000
   N     51.20000000    15.84000000     9.48000000
   C     51.49000000    14.66000000     8.70000000
   C     50.23000000    13.92000000     8.28000000
   O     50.08000000    13.52000000     7.12000000
   C     52.43000000    13.76000000     9.49000000
   H     51.62000000    15.86000000    10.40000000
   H     51.87000000    14.98000000     7.73000000
   H     53.14000000    14.46000000     9.93000000
   H     51.98000000    13.20000000    10.30000000
   H     52.98000000    13.09000000     8.82000000
   N     49.21000000    13.75000000     9.13000000
   C     48.02000000    12.97000000     8.85000000
   C     47.04000000    13.85000000     8.09000000
   O     46.13000000    13.34000000     7.43000000
   C     47.33000000    12.52000000    10.14000000
   H     49.44000000    14.00000000    10.08000000
   H     48.38000000    12.09000000     8.33000000
   H     47.83000000    11.75000000    10.71000000
   H     47.00000000    13.37000000    10.74000000
   H     46.42000000    11.98000000     9.87000000
   N     47.17000000    15.17000000     8.05000000
   C     46.48000000    16.12000000     7.19000000
   C     46.99000000    16.18000000     5.75000000
   O     46.22000000    16.44000000     4.83000000
   C     46.42000000    17.49000000     7.84000000
   C     45.80000000    17.50000000     9.24000000
   C     45.75000000    18.97000000     9.63000000
   O     46.88000000    19.43000000     9.90000000
   O     44.73000000    19.70000000     9.64000000
   H     47.90000000    15.59000000     8.61000000
   H     45.43000000    15.82000000     7.11000000
   H     45.80000000    18.09000000     7.17000000
   H     47.44000000    17.88000000     7.90000000
   H     46.42000000    16.95000000     9.94000000
   H     44.77000000    17.15000000     9.18000000
   N     48.30000000    15.97000000     5.63000000
   C     48.91000000    15.75000000     4.33000000
   H     49.92300000    15.37100000     4.46400000
   H     48.32200000    15.02300000     3.77000000
   H     48.94400000    16.69100000     3.78000000
   H     48.80000000    15.88000000     6.50000000
  Ca     45.97000000    21.69000000    10.79000000
   O     45.34000000    19.87000000    12.64000000
   H     44.53000000    19.74000000    13.14000000
   H     46.02000000    19.50000000    13.21000000
   O     47.92000000    21.47000000    12.52000000
   H     48.80000000    21.14000000    12.34000000
   H     48.00000000    21.90000000    13.37000000

Ca 1.00



