%chk=loop1.apoCaM-CA-Ng.Init31.run41.water5.chk
%nprocshared=20
%mem=10GB
%nosave
#b3lyp/svp scf=(tight,noincore,xqc) Test 
#IOP(5/87=12) Density=Current Pop=(MK,readradii) iop(6/33=2) iop(6/42=6)

loop1.apoCaM-CA-Ng.Init31.run41.water5 

   0  1 
   C     97.88000000    72.95000000    23.24000000
   C     98.32000000    74.37000000    22.89000000
   O     98.41000000    75.21000000    23.78000000
   H     96.90300000    72.75400000    22.79800000
   H     98.60500000    72.23700000    22.84800000
   H     97.81600000    72.84500000    24.32300000
   N     98.55000000    74.68000000    21.61000000
   C     98.48000000    76.02000000    21.08000000
   C     97.05000000    76.49000000    20.86000000
   O     96.16000000    75.65000000    20.75000000
   C     99.28000000    76.08000000    19.77000000
   C     99.50000000    77.51000000    19.30000000
   O     99.59000000    78.44000000    20.12000000
   O     99.77000000    77.72000000    18.10000000
   H     98.47000000    73.87000000    21.00000000
   H     98.84000000    76.67000000    21.88000000
   H     98.80000000    75.52000000    18.97000000
   H    100.18000000    75.48000000    19.89000000
   N     96.78000000    77.79000000    20.73000000
   C     95.47000000    78.40000000    20.81000000
   C     94.45000000    77.76000000    19.87000000
   O     93.44000000    77.37000000    20.45000000
   C     95.60000000    79.91000000    20.65000000
   C     94.24000000    80.54000000    20.93000000
   C     93.68000000    80.55000000    22.35000000
   C     92.34000000    81.27000000    22.37000000
   N     91.97000000    81.49000000    23.78000000
   H     97.61000000    78.37000000    20.73000000
   H     95.16000000    78.17000000    21.83000000
   H     95.84000000    80.09000000    19.60000000
   H     96.40000000    80.34000000    21.26000000
   H     93.48000000    80.14000000    20.26000000
   H     94.34000000    81.50000000    20.42000000
   H     94.40000000    80.88000000    23.11000000
   H     93.56000000    79.48000000    22.49000000
   H     91.51000000    80.72000000    21.91000000
   H     92.54000000    82.22000000    21.89000000
   H     92.69000000    81.98000000    24.29000000
   H     91.10000000    81.97000000    23.94000000
   H     91.91000000    80.61000000    24.28000000
   N     94.68000000    77.58000000    18.57000000
   C     95.79000000    77.94000000    17.71000000
   C     96.10000000    76.89000000    16.66000000
   O     95.20000000    76.46000000    15.94000000
   C     95.46000000    79.20000000    16.91000000
   C     96.69000000    79.94000000    16.39000000
   O     96.55000000    80.86000000    15.56000000
   O     97.84000000    79.66000000    16.80000000
   H     93.88000000    77.07000000    18.20000000
   H     96.66000000    78.19000000    18.32000000
   H     94.94000000    79.93000000    17.52000000
   H     94.75000000    79.05000000    16.10000000
   N     97.39000000    76.75000000    16.36000000
   C     97.99000000    76.00000000    15.28000000
   C     99.49000000    76.18000000    15.07000000
   O    100.35000000    75.41000000    15.48000000
   H     98.06000000    77.28000000    16.91000000
   H     97.46000000    76.36000000    14.40000000
   H     97.72000000    74.97000000    15.50000000
   N     99.92000000    77.16000000    14.27000000
   C    101.23000000    77.36000000    13.68000000
   C    101.33000000    76.57000000    12.38000000
   O    100.80000000    76.92000000    11.33000000
   C    101.46000000    78.86000000    13.57000000
   C    101.28000000    79.47000000    14.96000000
   O    101.94000000    79.12000000    15.96000000
   O    100.55000000    80.46000000    15.14000000
   H     99.26000000    77.81000000    13.88000000
   H    101.94000000    76.90000000    14.37000000
   H    100.64000000    79.11000000    12.89000000
   H    102.37000000    79.10000000    13.03000000
   N    102.08000000    75.46000000    12.35000000
   C    103.01000000    74.90000000    13.30000000
   C    104.42000000    75.47000000    13.15000000
   O    105.18000000    75.52000000    14.11000000
   H    102.15000000    75.06000000    11.42000000
   H    103.16000000    73.85000000    13.04000000
   H    102.65000000    74.93000000    14.32000000
   N    104.75000000    76.04000000    11.99000000
   C    106.06000000    76.61000000    11.74000000
   C    107.06000000    75.46000000    11.66000000
   O    108.03000000    75.43000000    12.42000000
   C    106.41000000    77.78000000    12.65000000
   C    105.22000000    78.73000000    12.76000000
   O    107.53000000    78.54000000    12.25000000
   H    104.07000000    75.97000000    11.25000000
   H    106.07000000    77.01000000    10.72000000
   H    106.64000000    77.47000000    13.67000000
   H    108.23000000    78.43000000    12.90000000
   H    105.54000000    79.68000000    13.20000000
   H    104.78000000    78.97000000    11.79000000
   H    104.48000000    78.30000000    13.43000000
   N    106.79000000    74.44000000    10.84000000
   C    107.59000000    73.26000000    10.58000000
   C    108.98000000    73.49000000    10.02000000
   O    109.22000000    72.92000000     8.96000000
   C    107.64000000    72.29000000    11.76000000
   C    106.33000000    72.16000000    12.53000000
   C    107.98000000    70.87000000    11.31000000
   C    105.10000000    71.68000000    11.76000000
   H    105.95000000    74.56000000    10.30000000
   H    106.96000000    72.84000000     9.79000000
   H    108.41000000    72.54000000    12.49000000
   H    105.97000000    73.11000000    12.92000000
   H    106.53000000    71.56000000    13.41000000
   H    107.20000000    70.43000000    10.69000000
   H    108.91000000    70.87000000    10.75000000
   H    108.05000000    70.27000000    12.21000000
   H    104.27000000    71.75000000    12.46000000
   H    104.91000000    72.37000000    10.94000000
   H    105.15000000    70.64000000    11.43000000
   N    109.84000000    74.27000000    10.68000000
   C    111.21000000    74.55000000    10.32000000
   C    112.17000000    74.12000000    11.42000000
   O    111.89000000    74.40000000    12.59000000
   C    111.45000000    76.03000000    10.03000000
   C    110.74000000    77.00000000    10.97000000
   O    110.91000000    76.26000000     8.75000000
   H    109.52000000    74.82000000    11.47000000
   H    111.48000000    73.96000000     9.44000000
   H    112.52000000    76.26000000    10.05000000
   H    111.53000000    76.82000000     8.28000000
   H    111.05000000    77.99000000    10.63000000
   H    109.65000000    77.05000000    10.96000000
   H    111.10000000    76.80000000    11.97000000
   N    113.35000000    73.63000000    11.07000000
   C    114.44000000    73.51000000    12.03000000
   C    114.74000000    74.81000000    12.77000000
   O    114.72000000    75.88000000    12.17000000
   C    115.64000000    72.80000000    11.41000000
   C    115.38000000    71.30000000    11.30000000
   O    115.86000000    73.27000000    10.10000000
   H    113.62000000    73.65000000    10.10000000
   H    114.08000000    72.83000000    12.80000000
   H    116.49000000    72.98000000    12.07000000
   H    116.20000000    72.58000000     9.53000000
   H    114.35000000    71.10000000    11.02000000
   H    116.01000000    70.95000000    10.48000000
   H    115.69000000    70.85000000    12.24000000
   N    115.07000000    74.76000000    14.06000000
   C    115.12000000    75.96000000    14.87000000
   C    113.99000000    76.96000000    14.70000000
   O    114.15000000    78.04000000    14.13000000
   C    116.48000000    76.61000000    14.62000000
   C    117.70000000    75.79000000    15.05000000
   C    118.97000000    76.50000000    14.60000000
   C    120.09000000    75.53000000    14.95000000
   N    121.43000000    75.92000000    14.46000000
   H    114.89000000    73.91000000    14.57000000
   H    115.04000000    75.68000000    15.92000000
   H    116.53000000    77.52000000    15.21000000
   H    116.61000000    76.86000000    13.57000000
   H    117.65000000    74.85000000    14.51000000
   H    117.71000000    75.52000000    16.11000000
   H    119.04000000    77.49000000    15.06000000
   H    118.94000000    76.62000000    13.51000000
   H    119.81000000    74.61000000    14.45000000
   H    120.13000000    75.41000000    16.03000000
   H    122.12000000    75.29000000    14.84000000
   H    121.56000000    76.06000000    13.47000000
   H    121.67000000    76.84000000    14.78000000
   N    112.79000000    76.55000000    15.13000000
   C    111.60000000    77.37000000    15.18000000
   C    110.28000000    76.81000000    14.66000000
   O    109.47000000    77.50000000    14.04000000
   C    111.40000000    77.85000000    16.62000000
   C    112.63000000    78.53000000    17.19000000
   C    112.39000000    79.06000000    18.60000000
   O    111.65000000    80.06000000    18.73000000
   O    112.90000000    78.47000000    19.57000000
   H    112.65000000    75.55000000    15.21000000
   H    111.65000000    78.31000000    14.64000000
   H    111.17000000    77.02000000    17.29000000
   H    110.57000000    78.56000000    16.57000000
   H    112.89000000    79.37000000    16.54000000
   H    113.44000000    77.80000000    17.26000000
   N    109.97000000    75.52000000    14.79000000
   C    110.60000000    74.39000000    15.45000000
   H    111.53000000    74.71500000    15.91700000
   H    109.93000000    73.99400000    16.21300000
   H    110.81500000    73.61300000    14.71600000
   H    109.13000000    75.29000000    14.28000000
  Ca    100.19800000    80.21000000    17.88000000
   O    102.48800000    81.87000000    17.32000000
   H    103.24800000    81.88000000    16.73000000
   H    102.30800000    82.79000000    17.49000000
   O     98.22000000    81.36000000    19.34000000
   H     98.03000000    81.46000000    20.27000000
   H     97.98000000    82.20000000    18.96000000
   O     99.15000000    82.44000000    16.68000000
   H     98.39000000    82.11000000    16.19000000
   H     99.28000000    83.33000000    16.36000000
   O    101.16800000    82.06000000    19.70000000
   H    100.83800000    82.58000000    20.43000000
   H    102.10800000    82.24000000    19.68000000
   O    102.51800000    79.27000000    19.50000000
   H    102.46800000    78.37000000    19.80000000
   H    103.36800000    79.59000000    19.83000000

Ca 1.00



