%chk=loop4.apoCaM-CA-Ng.Init295.run65.water3.chk
%nprocshared=20
%mem=10GB
%nosave
#b3lyp/svp scf=(tight,noincore,xqc) Test 
#IOP(5/87=12) Density=Current Pop=(MK,readradii) iop(6/33=2) iop(6/42=6)

loop4.apoCaM-CA-Ng.Init295.run65.water3 

   -3  1 
   C    108.18000000    62.22000000    36.30000000
   C    109.26000000    61.22000000    36.66000000
   O    110.07000000    61.46000000    37.56000000
   H    107.31000000    62.06000000    36.93700000
   H    108.55700000    63.23200000    36.44800000
   H    107.89400000    62.08700000    35.25600000
   N    109.27000000    60.02000000    36.07000000
   C    110.08000000    58.87000000    36.40000000
   C    110.09000000    58.36000000    37.84000000
   O    111.06000000    57.82000000    38.35000000
   C    111.48000000    59.15000000    35.86000000
   C    111.67000000    59.92000000    34.56000000
   O    111.46000000    61.15000000    34.52000000
   O    112.01000000    59.32000000    33.52000000
   H    108.51000000    59.83000000    35.43000000
   H    109.58000000    58.15000000    35.75000000
   H    112.13000000    58.28000000    35.79000000
   H    112.00000000    59.83000000    36.54000000
   N    108.99000000    58.54000000    38.58000000
   C    108.81000000    57.99000000    39.90000000
   C    108.56000000    56.49000000    39.84000000
   O    107.79000000    56.03000000    39.00000000
   C    107.65000000    58.73000000    40.56000000
   C    107.91000000    60.23000000    40.50000000
   C    107.44000000    58.14000000    41.95000000
   C    106.99000000    61.14000000    41.31000000
   H    108.23000000    59.02000000    38.11000000
   H    109.76000000    58.09000000    40.42000000
   H    106.77000000    58.68000000    39.90000000
   H    107.94000000    60.54000000    39.46000000
   H    108.97000000    60.44000000    40.66000000
   H    106.56000000    58.64000000    42.36000000
   H    107.17000000    57.08000000    41.85000000
   H    108.29000000    58.26000000    42.61000000
   H    107.08000000    62.14000000    40.90000000
   H    105.96000000    60.78000000    41.31000000
   H    107.14000000    61.15000000    42.39000000
   N    109.15000000    55.68000000    40.73000000
   C    110.21000000    55.99000000    41.66000000
   C    111.62000000    56.04000000    41.08000000
   O    112.30000000    57.05000000    41.16000000
   C    110.19000000    55.21000000    42.97000000
   C    108.88000000    55.23000000    43.74000000
   O    108.71000000    56.01000000    44.70000000
   O    108.04000000    54.32000000    43.60000000
   H    108.78000000    54.73000000    40.78000000
   H    110.01000000    56.97000000    42.09000000
   H    111.12000000    55.30000000    43.53000000
   H    110.31000000    54.14000000    42.80000000
   N    112.04000000    54.93000000    40.45000000
   C    113.24000000    54.91000000    39.65000000
   C    114.54000000    54.87000000    40.45000000
   O    114.59000000    54.45000000    41.60000000
   H    111.44000000    54.12000000    40.46000000
   H    113.23000000    55.83000000    39.06000000
   H    113.24000000    54.03000000    39.01000000
   N    115.58000000    55.40000000    39.80000000
   C    116.84000000    55.61000000    40.48000000
   C    116.83000000    56.97000000    41.15000000
   O    117.57000000    57.09000000    42.12000000
   C    118.13000000    55.32000000    39.71000000
   C    118.40000000    56.27000000    38.55000000
   O    117.45000000    56.79000000    37.92000000
   O    119.61000000    56.41000000    38.28000000
   H    115.54000000    55.90000000    38.92000000
   H    116.87000000    54.85000000    41.27000000
   H    118.12000000    54.30000000    39.35000000
   H    118.99000000    55.41000000    40.39000000
   N    115.92000000    57.89000000    40.83000000
   C    115.90000000    59.19000000    41.46000000
   C    117.05000000    60.10000000    41.08000000
   O    117.20000000    61.20000000    41.61000000
   H    115.36000000    57.65000000    40.02000000
   H    115.97000000    59.06000000    42.54000000
   H    115.02000000    59.75000000    41.14000000
   N    117.85000000    59.68000000    40.09000000
   C    119.05000000    60.35000000    39.63000000
   C    118.84000000    61.79000000    39.18000000
   O    119.89000000    62.41000000    39.05000000
   C    120.23000000    59.95000000    40.50000000
   C    121.67000000    60.17000000    40.04000000
   C    122.66000000    59.95000000    41.18000000
   N    123.43000000    58.88000000    40.99000000
   O    122.84000000    60.74000000    42.10000000
   H    117.56000000    58.81000000    39.67000000
   H    119.35000000    59.87000000    38.70000000
   H    120.15000000    58.90000000    40.77000000
   H    120.10000000    60.49000000    41.44000000
   H    121.94000000    61.20000000    39.80000000
   H    121.73000000    59.49000000    39.19000000
   H    123.20000000    58.26000000    40.23000000
   H    124.12000000    58.53000000    41.64000000
   N    117.62000000    62.24000000    38.87000000
   C    117.31000000    63.61000000    38.51000000
   C    117.84000000    64.10000000    37.17000000
   O    118.22000000    63.26000000    36.37000000
   C    115.86000000    64.05000000    38.69000000
   C    114.85000000    63.43000000    37.73000000
   C    115.43000000    63.71000000    40.12000000
   H    116.85000000    61.59000000    38.87000000
   H    117.87000000    64.29000000    39.15000000
   H    115.73000000    65.13000000    38.56000000
   H    115.15000000    63.73000000    36.73000000
   H    114.91000000    62.35000000    37.70000000
   H    113.86000000    63.81000000    38.02000000
   H    115.50000000    62.66000000    40.40000000
   H    116.01000000    64.31000000    40.82000000
   H    114.37000000    63.99000000    40.18000000
   N    117.91000000    65.42000000    36.96000000
   C    118.08000000    65.90000000    35.61000000
   C    117.34000000    67.20000000    35.37000000
   O    117.01000000    67.75000000    36.42000000
   C    119.55000000    65.95000000    35.18000000
   C    119.87000000    66.41000000    33.76000000
   N    119.21000000    65.68000000    32.86000000
   O    120.53000000    67.41000000    33.50000000
   H    117.42000000    65.97000000    37.65000000
   H    117.52000000    65.22000000    34.96000000
   H    119.91000000    64.94000000    35.37000000
   H    120.08000000    66.56000000    35.91000000
   H    118.84000000    64.76000000    33.05000000
   H    119.31000000    65.91000000    31.88000000
   N    117.13000000    67.74000000    34.17000000
   C    116.47000000    69.00000000    33.92000000
   C    115.74000000    69.03000000    32.58000000
   O    115.33000000    70.06000000    32.07000000
   C    117.45000000    70.14000000    34.22000000
   C    116.94000000    71.22000000    35.14000000
   C    117.42000000    71.45000000    36.44000000
   C    115.94000000    72.07000000    34.64000000
   C    116.90000000    72.49000000    37.22000000
   C    115.39000000    73.12000000    35.39000000
   C    115.85000000    73.27000000    36.71000000
   O    115.53000000    74.34000000    37.49000000
   H    117.48000000    67.17000000    33.40000000
   H    115.63000000    69.16000000    34.59000000
   H    117.73000000    70.51000000    33.24000000
   H    118.36000000    69.85000000    34.73000000
   H    118.20000000    70.82000000    36.83000000
   H    115.67000000    71.82000000    33.63000000
   H    117.14000000    72.64000000    38.27000000
   H    114.75000000    73.87000000    34.94000000
   H    115.08000000    75.04000000    37.01000000
   N    115.36000000    67.87000000    32.04000000
   C    114.88000000    67.65000000    30.69000000
   C    113.58000000    68.42000000    30.46000000
   O    113.45000000    69.11000000    29.45000000
   C    114.80000000    66.17000000    30.34000000
   C    116.21000000    65.60000000    30.19000000
   C    116.08000000    64.08000000    30.14000000
   O    116.13000000    63.36000000    31.16000000
   O    115.74000000    63.61000000    29.03000000
   H    115.42000000    67.01000000    32.58000000
   H    115.63000000    68.15000000    30.07000000
   H    114.25000000    66.02000000    29.41000000
   H    114.26000000    65.60000000    31.09000000
   H    116.86000000    65.93000000    31.00000000
   H    116.57000000    66.02000000    29.25000000
   N    112.57000000    68.44000000    31.33000000
   C    112.24000000    67.70000000    32.53000000
   C    112.33000000    68.61000000    33.75000000
   O    112.28000000    69.83000000    33.58000000
   C    110.92000000    66.97000000    32.31000000
   C    110.66000000    65.90000000    31.25000000
   C    111.27000000    64.54000000    31.55000000
   O    111.29000000    63.76000000    30.57000000
   O    111.44000000    64.12000000    32.71000000
   H    111.87000000    69.15000000    31.13000000
   H    112.98000000    66.92000000    32.73000000
   H    110.26000000    67.83000000    32.21000000
   H    110.59000000    66.56000000    33.27000000
   H    111.08000000    66.21000000    30.30000000
   H    109.61000000    65.63000000    31.13000000
   N    112.38000000    68.00000000    34.93000000
   C    112.27000000    68.58000000    36.25000000
   H    111.21800000    68.72100000    36.49800000
   H    112.72800000    67.91300000    36.98000000
   H    112.78000000    69.54300000    36.26800000
   H    112.39000000    66.99000000    34.99000000
  Ca    110.91500000    61.59000000    32.08000000
   O    111.49500000    60.28000000    29.91000000
   H    112.15500000    60.22000000    29.22000000
   H    110.71500000    59.85000000    29.54000000
   O    109.22500000    59.56000000    31.70000000
   H    109.28500000    58.83000000    32.31000000
   H    108.89500000    59.18000000    30.89000000
   O    113.70500000    61.80000000    31.79000000
   H    114.00500000    60.93000000    31.53000000
   H    114.39500000    62.39000000    31.50000000

Ca 1.00



