%chk=loop4.apoCaM-CA-Ng.Init293.run7.water4.chk
%nprocshared=20
%mem=10GB
%nosave
#b3lyp/svp scf=(tight,noincore,xqc) Test 
#IOP(5/87=12) Density=Current Pop=(MK,readradii) iop(6/33=2) iop(6/42=6)

loop4.apoCaM-CA-Ng.Init293.run7.water4 

   -3  1 
   C     37.67000000    61.37000000    45.87000000
   C     37.74000000    62.34000000    47.04000000
   O     38.84000000    62.47000000    47.58000000
   H     37.28600000    61.88800000    44.99200000
   H     38.66700000    60.98500000    45.65700000
   H     37.00700000    60.54300000    46.12200000
   N     36.68000000    63.12000000    47.26000000
   C     36.54000000    64.38000000    47.96000000
   C     37.71000000    65.31000000    47.71000000
   O     38.65000000    65.40000000    48.50000000
   C     36.13000000    64.26000000    49.43000000
   C     36.84000000    63.12000000    50.14000000
   O     36.32000000    61.99000000    50.20000000
   O     38.00000000    63.33000000    50.55000000
   H     35.87000000    62.80000000    46.75000000
   H     35.68000000    64.90000000    47.54000000
   H     35.06000000    64.08000000    49.50000000
   H     36.30000000    65.19000000    49.98000000
   N     37.60000000    65.96000000    46.56000000
   C     38.61000000    66.76000000    45.90000000
   C     39.53000000    67.50000000    46.86000000
   O     40.71000000    67.15000000    46.84000000
   C     39.22000000    66.06000000    44.69000000
   C     40.02000000    67.06000000    43.86000000
   C     38.22000000    65.33000000    43.81000000
   C     41.28000000    66.50000000    43.22000000
   H     36.67000000    65.93000000    46.15000000
   H     38.09000000    67.61000000    45.46000000
   H     39.87000000    65.27000000    45.08000000
   H     40.23000000    67.95000000    44.46000000
   H     39.38000000    67.52000000    43.10000000
   H     38.62000000    65.06000000    42.83000000
   H     37.78000000    64.48000000    44.34000000
   H     37.45000000    66.08000000    43.61000000
   H     41.99000000    66.11000000    43.95000000
   H     40.98000000    65.79000000    42.44000000
   H     41.84000000    67.29000000    42.71000000
   N     39.06000000    68.52000000    47.59000000
   C     39.85000000    69.35000000    48.48000000
   C     39.97000000    68.94000000    49.94000000
   O     39.07000000    68.28000000    50.45000000
   C     39.30000000    70.77000000    48.41000000
   C     39.40000000    71.43000000    47.04000000
   O     40.52000000    71.49000000    46.49000000
   O     38.48000000    72.21000000    46.71000000
   H     38.07000000    68.71000000    47.59000000
   H     40.86000000    69.44000000    48.08000000
   H     39.86000000    71.45000000    49.05000000
   H     38.25000000    70.74000000    48.70000000
   N     40.97000000    69.30000000    50.75000000
   C     42.29000000    69.83000000    50.47000000
   C     42.90000000    70.73000000    51.54000000
   O     42.22000000    71.10000000    52.49000000
   H     40.77000000    68.96000000    51.68000000
   H     42.33000000    70.40000000    49.54000000
   H     42.94000000    68.97000000    50.34000000
   N     44.14000000    71.22000000    51.47000000
   C     45.22000000    71.10000000    50.52000000
   C     45.82000000    69.70000000    50.55000000
   O     45.67000000    68.90000000    51.47000000
   C     46.21000000    72.23000000    50.80000000
   C     46.69000000    72.22000000    52.24000000
   O     45.95000000    72.77000000    53.09000000
   O     47.75000000    71.68000000    52.62000000
   H     44.31000000    71.91000000    52.18000000
   H     44.78000000    71.20000000    49.52000000
   H     45.68000000    73.14000000    50.52000000
   H     47.03000000    72.15000000    50.08000000
   N     46.64000000    69.26000000    49.60000000
   C     46.86000000    69.67000000    48.23000000
   C     47.93000000    68.87000000    47.49000000
   O     48.02000000    68.93000000    46.27000000
   H     46.96000000    68.32000000    49.82000000
   H     47.00000000    70.73000000    48.02000000
   H     45.93000000    69.51000000    47.69000000
   N     48.78000000    68.15000000    48.23000000
   C     49.98000000    67.48000000    47.78000000
   C     49.71000000    66.07000000    47.26000000
   O     50.61000000    65.36000000    46.83000000
   C     50.93000000    67.55000000    48.98000000
   C     50.66000000    66.55000000    50.09000000
   C     51.88000000    66.16000000    50.91000000
   N     52.15000000    66.98000000    51.93000000
   O     52.55000000    65.18000000    50.62000000
   H     48.57000000    68.26000000    49.21000000
   H     50.34000000    68.01000000    46.90000000
   H     50.89000000    68.57000000    49.35000000
   H     51.94000000    67.45000000    48.57000000
   H     50.42000000    65.58000000    49.66000000
   H     49.82000000    66.81000000    50.74000000
   H     51.53000000    67.77000000    52.11000000
   H     52.94000000    66.80000000    52.52000000
   N     48.46000000    65.61000000    47.29000000
   C     48.07000000    64.31000000    46.77000000
   C     48.38000000    63.21000000    47.77000000
   O     48.65000000    63.56000000    48.91000000
   C     46.71000000    64.21000000    46.09000000
   C     46.69000000    65.26000000    44.98000000
   C     45.61000000    64.59000000    47.07000000
   H     47.73000000    66.17000000    47.69000000
   H     48.72000000    64.15000000    45.90000000
   H     46.56000000    63.22000000    45.67000000
   H     46.80000000    66.26000000    45.40000000
   H     47.50000000    65.25000000    44.26000000
   H     45.77000000    65.11000000    44.41000000
   H     45.62000000    65.67000000    47.21000000
   H     44.62000000    64.20000000    46.80000000
   H     45.75000000    64.14000000    48.06000000
   N     48.45000000    61.97000000    47.27000000
   C     48.84000000    60.66000000    47.76000000
   C     48.55000000    60.17000000    49.17000000
   O     48.39000000    58.98000000    49.43000000
   C     50.35000000    60.62000000    47.57000000
   C     50.96000000    59.24000000    47.80000000
   N     51.69000000    59.07000000    48.90000000
   O     50.72000000    58.28000000    47.07000000
   H     48.23000000    61.93000000    46.28000000
   H     48.35000000    59.96000000    47.09000000
   H     50.90000000    61.32000000    48.19000000
   H     50.60000000    60.93000000    46.56000000
   H     51.70000000    59.77000000    49.63000000
   H     52.29000000    58.26000000    49.00000000
   N     48.54000000    61.06000000    50.17000000
   C     48.43000000    60.64000000    51.55000000
   C     46.99000000    60.69000000    52.06000000
   O     46.30000000    61.70000000    51.96000000
   C     49.47000000    61.53000000    52.24000000
   C     50.86000000    61.08000000    51.86000000
   C     51.71000000    61.81000000    51.02000000
   C     51.43000000    59.97000000    52.49000000
   C     52.96000000    61.30000000    50.66000000
   C     52.74000000    59.51000000    52.25000000
   C     53.54000000    60.19000000    51.30000000
   O     54.85000000    59.94000000    51.00000000
   H     48.93000000    61.95000000    49.89000000
   H     48.74000000    59.61000000    51.67000000
   H     49.25000000    61.46000000    53.30000000
   H     49.28000000    62.55000000    51.91000000
   H     51.38000000    62.68000000    50.47000000
   H     50.97000000    59.42000000    53.30000000
   H     53.59000000    61.77000000    49.92000000
   H     53.16000000    58.63000000    52.70000000
   H     55.21000000    59.39000000    51.70000000
   N     46.51000000    59.59000000    52.64000000
   C     45.09000000    59.36000000    52.84000000
   C     44.17000000    59.38000000    51.63000000
   O     43.13000000    60.04000000    51.64000000
   C     44.49000000    60.09000000    54.03000000
   C     45.21000000    59.84000000    55.36000000
   C     45.14000000    58.35000000    55.67000000
   O     44.09000000    57.83000000    56.08000000
   O     46.15000000    57.62000000    55.54000000
   H     47.08000000    58.76000000    52.64000000
   H     45.10000000    58.33000000    53.20000000
   H     43.46000000    59.77000000    54.14000000
   H     44.55000000    61.16000000    53.82000000
   H     44.85000000    60.53000000    56.13000000
   H     46.26000000    60.03000000    55.17000000
   N     44.65000000    58.88000000    50.49000000
   C     44.07000000    58.97000000    49.17000000
   C     44.17000000    57.64000000    48.43000000
   O     43.53000000    57.44000000    47.41000000
   C     44.72000000    60.05000000    48.32000000
   C     44.66000000    61.43000000    48.97000000
   C     43.30000000    62.10000000    49.12000000
   O     42.30000000    61.49000000    48.68000000
   O     43.15000000    63.14000000    49.80000000
   H     45.58000000    58.49000000    50.55000000
   H     42.99000000    59.11000000    49.20000000
   H     44.24000000    60.07000000    47.34000000
   H     45.71000000    59.72000000    48.03000000
   H     45.38000000    62.13000000    48.54000000
   H     44.99000000    61.30000000    50.00000000
   N     44.85000000    56.64000000    49.02000000
   C     44.94000000    55.29000000    48.49000000
   H     45.95700000    54.91800000    48.61500000
   H     44.24800000    54.64100000    49.02700000
   H     44.68400000    55.29700000    47.43100000
   H     45.30000000    56.73000000    49.91000000
  Ca     40.43000000    63.29000000    49.46000000
   O     41.22000000    64.47000000    47.26000000
   H     41.02000000    65.38000000    47.05000000
   H     41.70000000    64.14000000    46.50000000
   O     39.63000000    60.98000000    50.29000000
   H     38.69000000    60.88000000    50.46000000
   H     40.05000000    60.42000000    50.95000000
   O     41.03000000    62.65000000    51.94000000
   H     41.81000000    63.03000000    52.34000000
   H     40.69000000    62.04000000    52.59000000
   O     41.01000000    65.77000000    50.17000000
   H     41.45000000    66.12000000    50.94000000
   H     40.35000000    66.43000000    49.96000000

Ca 1.00



