%chk=loop1.holoCaM.run100.water2.chk
%nprocshared=20
%mem=10GB
%nosave
#b3lyp/svp scf=(tight,noincore,xqc) Test 
#IOP(5/87=12) Density=Current Pop=(MK,readradii) iop(6/33=2) iop(6/42=6)

loop1.holoCaM.run100.water2 

   0  1 
   C      7.92000000    66.92000000    16.42000000
   C      6.42000000    66.70000000    16.57000000
   O      5.67000000    67.33000000    15.83000000
   H      8.44800000    65.99900000    16.66600000
   H      8.14500000    67.20300000    15.39200000
   H      8.24100000    67.71400000    17.09500000
   N      5.97000000    66.07000000    17.66000000
   C      4.71000000    66.45000000    18.28000000
   C      4.73000000    67.85000000    18.88000000
   O      5.63000000    68.21000000    19.64000000
   C      4.45000000    65.36000000    19.31000000
   C      3.16000000    65.65000000    20.06000000
   O      2.04000000    65.61000000    19.51000000
   O      3.25000000    65.84000000    21.30000000
   H      6.63000000    65.65000000    18.30000000
   H      3.90000000    66.32000000    17.56000000
   H      5.30000000    65.36000000    19.99000000
   H      4.35000000    64.36000000    18.88000000
   N      3.70000000    68.61000000    18.51000000
   C      3.52000000    70.00000000    18.86000000
   C      2.54000000    70.39000000    19.96000000
   O      2.67000000    71.39000000    20.66000000
   C      3.20000000    70.89000000    17.66000000
   C      4.19000000    70.85000000    16.50000000
   C      5.59000000    71.33000000    16.87000000
   C      6.67000000    71.54000000    15.82000000
   N      8.00000000    71.73000000    16.42000000
   H      2.99000000    68.23000000    17.91000000
   H      4.51000000    70.33000000    19.18000000
   H      3.11000000    71.94000000    17.95000000
   H      2.28000000    70.59000000    17.17000000
   H      3.92000000    71.58000000    15.75000000
   H      4.20000000    69.81000000    16.17000000
   H      5.97000000    70.51000000    17.48000000
   H      5.63000000    72.17000000    17.57000000
   H      6.31000000    72.32000000    15.15000000
   H      6.74000000    70.59000000    15.29000000
   H      8.61000000    71.68000000    15.62000000
   H      7.99000000    72.58000000    16.97000000
   H      8.16000000    70.91000000    17.00000000
   N      1.46000000    69.61000000    20.06000000
   C      0.33000000    69.88000000    20.92000000
   C      0.25000000    68.95000000    22.13000000
   O     -0.66000000    69.02000000    22.96000000
   C     -0.94000000    70.03000000    20.10000000
   C     -1.19000000    69.00000000    19.01000000
   O     -0.64000000    67.88000000    19.13000000
   O     -1.95000000    69.17000000    18.03000000
   H      1.33000000    68.84000000    19.41000000
   H      0.42000000    70.84000000    21.43000000
   H     -1.01000000    71.04000000    19.68000000
   H     -1.80000000    70.08000000    20.77000000
   N      1.31000000    68.15000000    22.26000000
   C      1.66000000    67.67000000    23.58000000
   C      0.87000000    66.42000000    23.93000000
   O      0.52000000    66.15000000    25.07000000
   H      2.00000000    68.10000000    21.53000000
   H      1.49000000    68.50000000    24.28000000
   H      2.69000000    67.34000000    23.51000000
   N      0.54000000    65.60000000    22.93000000
   C     -0.06000000    64.28000000    22.97000000
   C      0.83000000    63.11000000    22.59000000
   O      0.43000000    61.95000000    22.69000000
   C     -1.35000000    64.37000000    22.15000000
   C     -1.11000000    64.62000000    20.67000000
   O     -1.85000000    65.36000000    19.99000000
   O     -0.32000000    63.92000000    19.99000000
   H      0.94000000    65.89000000    22.04000000
   H     -0.48000000    64.06000000    23.95000000
   H     -2.03000000    65.12000000    22.57000000
   H     -1.87000000    63.42000000    22.24000000
   N      2.04000000    63.39000000    22.09000000
   C      3.03000000    62.34000000    21.97000000
   C      2.81000000    61.45000000    20.76000000
   O      3.11000000    60.26000000    20.84000000
   H      2.30000000    64.32000000    21.80000000
   H      3.08000000    61.73000000    22.87000000
   H      4.02000000    62.77000000    21.78000000
   N      2.20000000    61.96000000    19.69000000
   C      1.83000000    61.37000000    18.42000000
   C      1.90000000    62.43000000    17.32000000
   O      1.64000000    63.61000000    17.53000000
   C      0.46000000    60.72000000    18.43000000
   C      0.62000000    59.41000000    19.21000000
   O     -0.63000000    61.48000000    18.91000000
   H      1.97000000    62.94000000    19.80000000
   H      2.54000000    60.58000000    18.17000000
   H      0.21000000    60.48000000    17.40000000
   H     -0.40000000    62.31000000    19.32000000
   H     -0.02000000    58.68000000    18.72000000
   H      1.64000000    59.05000000    19.12000000
   H      0.48000000    59.49000000    20.29000000
   N      2.24000000    62.00000000    16.10000000
   C      2.45000000    62.86000000    14.95000000
   C      1.42000000    62.62000000    13.86000000
   O      1.13000000    61.45000000    13.61000000
   C      3.93000000    62.73000000    14.58000000
   C      4.81000000    63.24000000    15.72000000
   C      4.28000000    63.54000000    13.34000000
   C      6.31000000    63.05000000    15.48000000
   H      2.45000000    61.02000000    15.98000000
   H      2.35000000    63.92000000    15.14000000
   H      4.08000000    61.66000000    14.45000000
   H      4.53000000    62.71000000    16.63000000
   H      4.51000000    64.27000000    15.89000000
   H      5.25000000    63.28000000    12.92000000
   H      3.52000000    63.53000000    12.56000000
   H      4.40000000    64.60000000    13.57000000
   H      6.68000000    63.70000000    14.69000000
   H      6.87000000    63.34000000    16.37000000
   H      6.68000000    62.04000000    15.29000000
   N      0.71000000    63.65000000    13.38000000
   C     -0.28000000    63.67000000    12.33000000
   C      0.30000000    63.83000000    10.93000000
   O      1.45000000    64.18000000    10.70000000
   C     -1.38000000    64.71000000    12.57000000
   C     -2.23000000    64.52000000    13.82000000
   O     -0.74000000    65.96000000    12.61000000
   H      0.82000000    64.57000000    13.78000000
   H     -0.80000000    62.72000000    12.40000000
   H     -2.16000000    64.71000000    11.81000000
   H     -1.32000000    66.48000000    13.17000000
   H     -1.63000000    64.40000000    14.72000000
   H     -2.79000000    65.44000000    14.01000000
   H     -2.87000000    63.66000000    13.62000000
   N     -0.58000000    63.71000000     9.94000000
   C     -0.46000000    64.15000000     8.56000000
   C     -0.06000000    65.62000000     8.42000000
   O      0.55000000    66.05000000     7.44000000
   C     -1.73000000    63.94000000     7.75000000
   C     -2.16000000    62.49000000     7.50000000
   O     -2.83000000    64.55000000     8.39000000
   H     -1.52000000    63.40000000    10.15000000
   H      0.29000000    63.52000000     8.09000000
   H     -1.62000000    64.40000000     6.77000000
   H     -3.36000000    65.02000000     7.75000000
   H     -1.35000000    62.18000000     6.85000000
   H     -2.23000000    61.89000000     8.41000000
   H     -3.11000000    62.45000000     6.97000000
   N     -0.41000000    66.53000000     9.33000000
   C      0.00000000    67.92000000     9.32000000
   C      1.26000000    68.10000000    10.15000000
   O      2.11000000    68.88000000     9.72000000
   C     -1.10000000    68.82000000     9.86000000
   C     -2.49000000    68.80000000     9.22000000
   C     -2.48000000    69.34000000     7.79000000
   C     -3.93000000    69.62000000     7.40000000
   N     -3.93000000    70.43000000     6.17000000
   H     -0.90000000    66.17000000    10.13000000
   H      0.16000000    68.20000000     8.28000000
   H     -0.71000000    69.84000000     9.80000000
   H     -1.30000000    68.53000000    10.90000000
   H     -3.26000000    69.38000000     9.73000000
   H     -2.91000000    67.80000000     9.24000000
   H     -2.06000000    68.60000000     7.10000000
   H     -1.96000000    70.30000000     7.84000000
   H     -4.40000000    70.12000000     8.24000000
   H     -4.51000000    68.71000000     7.25000000
   H     -3.83000000    69.97000000     5.27000000
   H     -4.85000000    70.85000000     6.13000000
   H     -3.28000000    71.19000000     6.04000000
   N      1.54000000    67.31000000    11.19000000
   C      2.72000000    67.54000000    11.99000000
   C      3.95000000    66.95000000    11.31000000
   O      5.05000000    67.48000000    11.46000000
   C      2.61000000    66.82000000    13.34000000
   C      1.70000000    67.52000000    14.34000000
   C      1.42000000    66.78000000    15.64000000
   O      0.89000000    65.65000000    15.51000000
   O      1.47000000    67.31000000    16.77000000
   H      0.84000000    66.67000000    11.55000000
   H      2.88000000    68.60000000    12.20000000
   H      3.61000000    66.70000000    13.74000000
   H      2.27000000    65.78000000    13.25000000
   H      0.76000000    67.80000000    13.85000000
   H      2.20000000    68.43000000    14.68000000
   N      3.88000000    65.82000000    10.60000000
   C      4.98000000    65.18000000     9.90000000
   H      5.85900000    65.16100000    10.54500000
   H      4.70000000    64.16000000     9.63800000
   H      5.20800000    65.73900000     8.99200000
   H      3.01000000    65.31000000    10.58000000
  Ca     -0.03900000    65.59000000    18.01000000
   O     -1.51900000    63.45000000    17.27000000
   H     -1.42900000    62.70000000    17.86000000
   H     -2.45900000    63.53000000    17.12000000
   O     -2.20900000    66.56000000    16.65000000
   H     -3.03900000    66.31000000    16.23000000
   H     -2.42900000    67.33000000    17.17000000

Ca 1.00



