%chk=loop1.apoCaM-CA-Ng.Init295.run29.water5.chk
%nprocshared=20
%mem=10GB
%nosave
#b3lyp/svp scf=(tight,noincore,xqc) Test 
#IOP(5/87=12) Density=Current Pop=(MK,readradii) iop(6/33=2) iop(6/42=6)

loop1.apoCaM-CA-Ng.Init295.run29.water5 

   0  1 
   C     91.03000000    85.98000000    61.22000000
   C     91.17000000    86.96000000    60.06000000
   O     90.46000000    87.95000000    59.94000000
   H     89.98300000    85.69900000    61.33300000
   H     91.62500000    85.08900000    61.01800000
   H     91.38000000    86.45100000    62.13800000
   N     92.14000000    86.65000000    59.19000000
   C     92.60000000    87.54000000    58.14000000
   C     93.17000000    88.88000000    58.60000000
   O     92.98000000    89.95000000    58.02000000
   C     91.54000000    87.73000000    57.05000000
   C     92.10000000    88.33000000    55.77000000
   O     91.35000000    88.79000000    54.89000000
   O     93.30000000    88.15000000    55.48000000
   H     92.78000000    85.90000000    59.37000000
   H     93.36000000    86.94000000    57.65000000
   H     90.70000000    88.35000000    57.36000000
   H     91.26000000    86.70000000    56.83000000
   N     93.79000000    88.82000000    59.78000000
   C     94.21000000    89.99000000    60.52000000
   C     95.65000000    90.41000000    60.25000000
   O     95.88000000    91.57000000    59.93000000
   C     93.83000000    89.91000000    61.99000000
   C     92.31000000    89.84000000    62.17000000
   C     91.57000000    91.14000000    61.88000000
   C     90.07000000    90.86000000    61.87000000
   N     89.26000000    91.89000000    61.21000000
   H     94.01000000    87.93000000    60.21000000
   H     93.71000000    90.91000000    60.21000000
   H     94.17000000    90.76000000    62.57000000
   H     94.40000000    89.09000000    62.42000000
   H     92.07000000    89.51000000    63.18000000
   H     92.00000000    89.06000000    61.47000000
   H     91.83000000    91.51000000    60.88000000
   H     91.93000000    91.98000000    62.47000000
   H     89.66000000    90.64000000    62.85000000
   H     89.89000000    89.91000000    61.36000000
   H     88.29000000    91.60000000    61.23000000
   H     89.25000000    92.76000000    61.74000000
   H     89.50000000    92.12000000    60.26000000
   N     96.62000000    89.49000000    60.19000000
   C     98.01000000    89.86000000    59.99000000
   C     98.41000000    90.17000000    58.56000000
   O     99.29000000    91.00000000    58.31000000
   C     98.84000000    88.75000000    60.64000000
   C    100.32000000    89.08000000    60.78000000
   O    101.12000000    88.15000000    60.98000000
   O    100.69000000    90.27000000    60.70000000
   H     96.49000000    88.53000000    60.47000000
   H     98.23000000    90.74000000    60.59000000
   H     98.65000000    87.88000000    60.01000000
   H     98.42000000    88.56000000    61.63000000
   N     97.76000000    89.55000000    57.58000000
   C     97.95000000    89.72000000    56.16000000
   C     99.30000000    89.27000000    55.62000000
   O     99.31000000    88.82000000    54.48000000
   H     97.21000000    88.75000000    57.88000000
   H     98.01000000    90.81000000    56.05000000
   H     97.17000000    89.21000000    55.60000000
   N    100.40000000    89.21000000    56.38000000
   C    101.66000000    88.67000000    55.92000000
   C    102.13000000    87.46000000    56.71000000
   O    103.30000000    87.10000000    56.66000000
   C    102.54000000    89.91000000    55.76000000
   C    102.58000000    90.78000000    57.01000000
   O    102.21000000    91.97000000    56.97000000
   O    102.81000000    90.23000000    58.11000000
   H    100.25000000    89.63000000    57.30000000
   H    101.55000000    88.15000000    54.97000000
   H    102.19000000    90.54000000    54.95000000
   H    103.55000000    89.55000000    55.59000000
   N    101.21000000    86.82000000    57.44000000
   C    101.43000000    85.58000000    58.16000000
   C    100.22000000    85.40000000    59.06000000
   O     99.07000000    85.77000000    58.86000000
   H    100.26000000    87.14000000    57.35000000
   H    102.38000000    85.54000000    58.70000000
   H    101.55000000    84.76000000    57.44000000
   N    100.53000000    84.87000000    60.25000000
   C     99.62000000    84.43000000    61.29000000
   C    100.17000000    83.23000000    62.04000000
   O    100.86000000    83.29000000    63.06000000
   C     99.15000000    85.53000000    62.24000000
   C     98.27000000    85.13000000    63.43000000
   O    100.32000000    86.16000000    62.72000000
   H    101.49000000    84.57000000    60.30000000
   H     98.74000000    84.07000000    60.75000000
   H     98.65000000    86.33000000    61.69000000
   H    100.74000000    86.67000000    62.02000000
   H     98.17000000    85.93000000    64.17000000
   H     97.32000000    84.76000000    63.04000000
   H     98.76000000    84.34000000    64.00000000
   N     99.91000000    82.03000000    61.53000000
   C    100.39000000    80.75000000    62.02000000
   C    101.37000000    80.11000000    61.05000000
   O    101.74000000    78.96000000    61.28000000
   C     99.20000000    79.98000000    62.58000000
   C     98.19000000    79.57000000    61.51000000
   C     98.40000000    80.86000000    63.54000000
   C     98.50000000    78.31000000    60.70000000
   H     99.32000000    82.06000000    60.71000000
   H    101.00000000    80.89000000    62.91000000
   H     99.44000000    79.08000000    63.16000000
   H     98.02000000    80.40000000    60.82000000
   H     97.24000000    79.24000000    61.92000000
   H     99.12000000    81.11000000    64.31000000
   H     98.04000000    81.83000000    63.22000000
   H     97.49000000    80.37000000    63.91000000
   H     98.67000000    77.52000000    61.43000000
   H     97.61000000    78.07000000    60.12000000
   H     99.30000000    78.38000000    59.97000000
   N    101.85000000    80.80000000    60.01000000
   C    102.49000000    80.21000000    58.85000000
   C    101.50000000    79.63000000    57.85000000
   O    100.38000000    80.12000000    57.73000000
   C    103.44000000    81.13000000    58.10000000
   C    104.05000000    80.56000000    56.83000000
   O    102.90000000    82.38000000    57.75000000
   H    101.53000000    81.75000000    59.90000000
   H    103.09000000    79.37000000    59.20000000
   H    104.30000000    81.34000000    58.75000000
   H    103.62000000    82.93000000    57.42000000
   H    103.29000000    80.45000000    56.06000000
   H    104.82000000    81.21000000    56.41000000
   H    104.54000000    79.59000000    57.00000000
   N    101.73000000    78.51000000    57.17000000
   C    100.81000000    77.71000000    56.37000000
   C    100.18000000    76.61000000    57.21000000
   O     98.96000000    76.50000000    57.19000000
   C    101.42000000    77.13000000    55.10000000
   C    101.87000000    78.14000000    54.05000000
   O    100.50000000    76.26000000    54.48000000
   H    102.57000000    77.96000000    57.26000000
   H    100.02000000    78.43000000    56.17000000
   H    102.27000000    76.54000000    55.43000000
   H    100.98000000    75.90000000    53.73000000
   H    102.17000000    77.67000000    53.12000000
   H    101.12000000    78.93000000    53.93000000
   H    102.68000000    78.70000000    54.52000000
   N    101.03000000    75.82000000    57.88000000
   C    100.77000000    74.45000000    58.27000000
   C    100.79000000    74.25000000    59.77000000
   O    101.24000000    75.14000000    60.50000000
   C    101.73000000    73.54000000    57.51000000
   C    101.13000000    73.37000000    56.12000000
   C    101.57000000    72.11000000    55.37000000
   C    100.82000000    72.11000000    54.04000000
   N    101.05000000    70.93000000    53.19000000
   H    102.00000000    76.10000000    57.84000000
   H     99.73000000    74.26000000    57.97000000
   H    101.83000000    72.58000000    58.02000000
   H    102.75000000    73.89000000    57.37000000
   H    101.27000000    74.27000000    55.52000000
   H    100.05000000    73.25000000    56.25000000
   H    101.26000000    71.30000000    56.03000000
   H    102.65000000    72.15000000    55.27000000
   H    101.08000000    73.02000000    53.50000000
   H     99.77000000    72.22000000    54.28000000
   H    100.89000000    70.09000000    53.74000000
   H    100.43000000    70.95000000    52.39000000
   H    102.03000000    70.96000000    52.95000000
   N    100.17000000    73.18000000    60.27000000
   C     99.92000000    73.09000000    61.69000000
   C     98.54000000    72.48000000    61.86000000
   O     98.37000000    71.26000000    61.82000000
   C    100.98000000    72.21000000    62.36000000
   C    101.28000000    72.29000000    63.85000000
   C    102.26000000    71.17000000    64.19000000
   O    103.39000000    71.23000000    63.66000000
   O    101.92000000    70.17000000    64.86000000
   H     99.70000000    72.53000000    59.65000000
   H     99.94000000    74.04000000    62.22000000
   H    101.86000000    72.42000000    61.75000000
   H    100.74000000    71.18000000    62.10000000
   H    100.36000000    72.19000000    64.43000000
   H    101.80000000    73.21000000    64.09000000
   N     97.59000000    73.28000000    62.35000000
   C     97.40000000    74.71000000    62.47000000
   H     96.45300000    74.90900000    62.97100000
   H     98.21600000    75.13800000    63.05300000
   H     97.38700000    75.16000000    61.47700000
   H     96.75000000    72.79000000    62.63000000
  Ca    101.24800000    92.41000000    59.28000000
   O    101.61800000    93.52000000    61.90000000
   H    101.64800000    93.25000000    62.82000000
   H    101.38800000    94.44000000    61.92000000
   O    102.80800000    94.47000000    59.26000000
   H    102.66800000    95.41000000    59.28000000
   H    103.75800000    94.37000000    59.23000000
   O    100.08800000    94.19000000    57.44000000
   H    100.10800000    94.89000000    56.79000000
   H     99.25800000    94.30000000    57.90000000
   O     99.00000000    93.44000000    60.23000000
   H     98.80000000    93.20000000    61.13000000
   H     98.21000000    93.87000000    59.91000000
   O    103.66800000    91.91000000    60.32000000
   H    104.27800000    92.40000000    60.89000000
   H    104.14800000    91.11000000    60.09000000

Ca 1.00



