%chk=loop4.apoCaM-CA-Ng.Init295.run94.water3.chk
%nprocshared=20
%mem=10GB
%nosave
#b3lyp/svp scf=(tight,noincore,xqc) Test 
#IOP(5/87=12) Density=Current Pop=(MK,readradii) iop(6/33=2) iop(6/42=6)

loop4.apoCaM-CA-Ng.Init295.run94.water3 

   -3  1 
   C    106.05000000    64.59000000    78.34000000
   C    104.92000000    63.59000000    78.53000000
   O    103.75000000    63.96000000    78.41000000
   H    106.92200000    64.07900000    77.93300000
   H    105.73200000    65.37100000    77.64900000
   H    106.30600000    65.03600000    79.30100000
   N    105.30000000    62.35000000    78.86000000
   C    104.43000000    61.29000000    79.33000000
   C    103.43000000    60.93000000    78.24000000
   O    102.23000000    60.80000000    78.48000000
   C    103.83000000    61.54000000    80.71000000
   C    104.80000000    62.28000000    81.62000000
   O    105.95000000    61.82000000    81.82000000
   O    104.48000000    63.28000000    82.28000000
   H    106.25000000    62.11000000    78.64000000
   H    105.01000000    60.37000000    79.38000000
   H    103.60000000    60.57000000    81.17000000
   H    102.94000000    62.16000000    80.58000000
   N    103.97000000    60.86000000    77.02000000
   C    103.27000000    60.27000000    75.90000000
   C    103.73000000    58.82000000    75.86000000
   O    104.94000000    58.58000000    75.88000000
   C    103.35000000    60.97000000    74.54000000
   C    102.79000000    62.39000000    74.66000000
   C    102.77000000    60.22000000    73.35000000
   C    101.31000000    62.50000000    75.01000000
   H    104.90000000    61.15000000    76.76000000
   H    102.23000000    60.33000000    76.20000000
   H    104.43000000    61.08000000    74.42000000
   H    102.93000000    62.86000000    73.68000000
   H    103.30000000    63.04000000    75.36000000
   H    101.69000000    60.07000000    73.35000000
   H    103.14000000    60.74000000    72.47000000
   H    103.25000000    59.24000000    73.23000000
   H    100.95000000    63.52000000    74.89000000
   H    100.76000000    61.87000000    74.31000000
   H    101.20000000    62.34000000    76.08000000
   N    102.82000000    57.84000000    75.74000000
   C    101.38000000    57.86000000    75.59000000
   C    100.56000000    58.14000000    76.85000000
   O     99.79000000    59.09000000    76.98000000
   C    100.94000000    56.63000000    74.81000000
   C     99.45000000    56.61000000    74.48000000
   O     99.04000000    57.64000000    73.91000000
   O     98.73000000    55.66000000    74.83000000
   H    103.16000000    56.89000000    75.79000000
   H    101.16000000    58.62000000    74.85000000
   H    101.22000000    55.73000000    75.36000000
   H    101.45000000    56.56000000    73.85000000
   N    100.73000000    57.35000000    77.91000000
   C    100.15000000    57.45000000    79.24000000
   C     98.70000000    56.98000000    79.27000000
   O     97.97000000    56.96000000    78.28000000
   H    101.45000000    56.65000000    77.78000000
   H    100.13000000    58.50000000    79.53000000
   H    100.76000000    56.90000000    79.95000000
   N     98.27000000    56.69000000    80.50000000
   C     96.88000000    56.47000000    80.87000000
   C     95.93000000    57.62000000    80.55000000
   O     94.77000000    57.47000000    80.94000000
   C     96.85000000    56.14000000    82.36000000
   C     97.36000000    57.16000000    83.36000000
   O     97.20000000    56.96000000    84.59000000
   O     97.88000000    58.20000000    82.90000000
   H     99.01000000    56.56000000    81.17000000
   H     96.48000000    55.71000000    80.20000000
   H     97.39000000    55.21000000    82.55000000
   H     95.80000000    55.99000000    82.63000000
   N     96.42000000    58.78000000    80.10000000
   C     95.62000000    59.97000000    79.93000000
   C     95.10000000    60.57000000    81.23000000
   O     94.20000000    61.40000000    81.16000000
   H     97.36000000    58.75000000    79.74000000
   H     94.80000000    59.71000000    79.26000000
   H     96.28000000    60.64000000    79.37000000
   N     95.60000000    60.04000000    82.35000000
   C     95.15000000    60.49000000    83.66000000
   C     95.20000000    62.00000000    83.87000000
   O     94.38000000    62.65000000    84.52000000
   C     93.92000000    59.77000000    84.19000000
   C     94.26000000    58.31000000    84.46000000
   C     92.97000000    57.53000000    84.65000000
   N     93.12000000    56.23000000    84.92000000
   O     91.89000000    58.11000000    84.75000000
   H     96.46000000    59.53000000    82.24000000
   H     95.90000000    60.20000000    84.39000000
   H     93.12000000    59.82000000    83.45000000
   H     93.55000000    60.17000000    85.14000000
   H     94.95000000    58.22000000    85.30000000
   H     94.79000000    57.84000000    83.63000000
   H     94.01000000    55.75000000    85.03000000
   H     92.29000000    55.67000000    85.02000000
   N     96.15000000    62.75000000    83.32000000
   C     96.30000000    64.19000000    83.48000000
   C     97.57000000    64.53000000    84.25000000
   O     98.51000000    63.74000000    84.18000000
   C     96.17000000    64.84000000    82.11000000
   C     96.93000000    64.08000000    81.03000000
   C     94.70000000    64.85000000    81.70000000
   H     96.74000000    62.31000000    82.62000000
   H     95.54000000    64.67000000    84.10000000
   H     96.44000000    65.89000000    82.13000000
   H     96.29000000    63.28000000    80.65000000
   H     97.02000000    64.83000000    80.25000000
   H     97.87000000    63.66000000    81.39000000
   H     94.05000000    65.45000000    82.35000000
   H     94.68000000    65.20000000    80.67000000
   H     94.32000000    63.83000000    81.74000000
   N     97.56000000    65.61000000    85.03000000
   C     98.67000000    66.16000000    85.79000000
   C     99.05000000    67.56000000    85.31000000
   O     98.30000000    68.14000000    84.53000000
   C     98.20000000    66.00000000    87.23000000
   C     97.84000000    64.58000000    87.63000000
   N     98.47000000    63.47000000    87.23000000
   O     96.86000000    64.39000000    88.36000000
   H     96.81000000    66.29000000    85.05000000
   H     99.55000000    65.54000000    85.63000000
   H     97.34000000    66.66000000    87.37000000
   H     98.99000000    66.36000000    87.87000000
   H     99.31000000    63.59000000    86.69000000
   H     97.97000000    62.62000000    87.46000000
   N    100.12000000    68.18000000    85.81000000
   C    100.60000000    69.50000000    85.44000000
   C    102.11000000    69.68000000    85.54000000
   O    102.58000000    70.79000000    85.79000000
   C     99.84000000    70.53000000    86.28000000
   C     99.55000000    71.89000000    85.71000000
   C     99.12000000    72.06000000    84.38000000
   C     99.99000000    73.02000000    86.41000000
   C     99.05000000    73.36000000    83.87000000
   C    100.05000000    74.32000000    85.88000000
   C     99.48000000    74.49000000    84.60000000
   O     99.33000000    75.76000000    84.13000000
   H    100.61000000    67.69000000    86.54000000
   H    100.46000000    69.67000000    84.38000000
   H    100.37000000    70.57000000    87.24000000
   H     98.83000000    70.16000000    86.45000000
   H     98.85000000    71.23000000    83.76000000
   H    100.39000000    72.82000000    87.39000000
   H     98.68000000    73.44000000    82.86000000
   H    100.36000000    75.14000000    86.51000000
   H     99.57000000    76.41000000    84.79000000
   N    102.93000000    68.67000000    85.25000000
   C    104.33000000    68.69000000    85.63000000
   C    105.12000000    69.74000000    84.86000000
   O    105.92000000    70.49000000    85.41000000
   C    105.02000000    67.33000000    85.58000000
   C    104.50000000    66.19000000    86.45000000
   C    105.66000000    65.21000000    86.49000000
   O    106.18000000    64.78000000    85.44000000
   O    106.04000000    64.88000000    87.63000000
   H    102.51000000    67.78000000    84.99000000
   H    104.44000000    69.05000000    86.65000000
   H    106.05000000    67.51000000    85.89000000
   H    105.10000000    67.04000000    84.53000000
   H    103.62000000    65.70000000    86.03000000
   H    104.35000000    66.61000000    87.45000000
   N    104.95000000    69.89000000    83.54000000
   C    104.22000000    69.04000000    82.62000000
   C    102.93000000    69.63000000    82.05000000
   O    102.49000000    70.74000000    82.34000000
   C    105.21000000    68.77000000    81.49000000
   C    106.61000000    68.34000000    81.94000000
   C    106.83000000    66.84000000    82.08000000
   O    107.91000000    66.40000000    82.52000000
   O    105.81000000    66.12000000    82.07000000
   H    105.51000000    70.61000000    83.12000000
   H    103.87000000    68.10000000    83.04000000
   H    105.24000000    69.69000000    80.90000000
   H    104.80000000    68.02000000    80.82000000
   H    106.95000000    68.86000000    82.83000000
   H    107.20000000    68.60000000    81.06000000
   N    102.29000000    68.80000000    81.23000000
   C    101.04000000    69.04000000    80.53000000
   H    100.30600000    69.44500000    81.22700000
   H    101.20600000    69.75400000    79.72300000
   H    100.66900000    68.10200000    80.11600000
   H    102.74000000    67.90000000    81.12000000
  Ca    106.81200000    64.03000000    83.02000000
   O    109.39200000    63.26000000    82.96000000
   H    110.14200000    62.85000000    82.52000000
   H    109.77200000    63.95000000    83.50000000
   O    107.02200000    61.93000000    84.70000000
   H    107.01200000    60.98000000    84.60000000
   H    106.54200000    62.09000000    85.52000000
   O    108.84200000    64.95000000    85.22000000
   H    109.21200000    64.08000000    85.33000000
   H    107.99200000    64.92000000    85.65000000

Ca 1.00



