%chk=loop3.apoCaM-CA-Ng.Init295.run27.water3.chk
%nprocshared=20
%mem=10GB
%nosave
#b3lyp/svp scf=(tight,noincore,xqc) Test 
#IOP(5/87=12) Density=Current Pop=(MK,readradii) iop(6/33=2) iop(6/42=6)

loop3.apoCaM-CA-Ng.Init295.run27.water3 

   0  1 
   C     89.95000000    33.61000000    63.71000000
   C     90.43000000    33.18000000    65.09000000
   O     90.84000000    34.07000000    65.83000000
   H     89.07900000    34.25800000    63.81400000
   H     90.74600000    34.15200000    63.20000000
   H     89.67900000    32.72900000    63.12800000
   N     90.52000000    31.88000000    65.40000000
   C     91.44000000    31.37000000    66.40000000
   C     92.23000000    30.17000000    65.91000000
   O     91.74000000    29.33000000    65.15000000
   C     90.62000000    31.12000000    67.67000000
   C     91.31000000    30.63000000    68.92000000
   O     91.33000000    31.31000000    69.97000000
   O     92.15000000    29.70000000    68.84000000
   H     90.14000000    31.19000000    64.77000000
   H     92.10000000    32.20000000    66.63000000
   H     89.79000000    30.48000000    67.36000000
   H     90.21000000    32.07000000    68.02000000
   N     93.48000000    30.01000000    66.36000000
   C     94.27000000    28.90000000    65.86000000
   C     93.92000000    27.49000000    66.31000000
   O     94.12000000    26.52000000    65.58000000
   C     95.73000000    29.17000000    66.20000000
   C     96.57000000    28.58000000    65.07000000
   C     98.05000000    28.68000000    65.40000000
   C     98.49000000    27.75000000    66.54000000
   N     98.62000000    26.32000000    66.22000000
   H     93.85000000    30.64000000    67.05000000
   H     94.23000000    28.87000000    64.77000000
   H     95.99000000    28.76000000    67.18000000
   H     95.92000000    30.24000000    66.10000000
   H     96.30000000    29.03000000    64.11000000
   H     96.37000000    27.52000000    64.97000000
   H     98.26000000    29.70000000    65.72000000
   H     98.64000000    28.45000000    64.51000000
   H     97.78000000    27.92000000    67.35000000
   H     99.44000000    28.05000000    66.98000000
   H     97.85000000    25.67000000    66.19000000
   H     99.26000000    26.15000000    65.46000000
   H     99.12000000    25.90000000    66.98000000
   N     93.32000000    27.31000000    67.49000000
   C     92.82000000    26.09000000    68.08000000
   C     91.32000000    25.91000000    67.92000000
   O     90.73000000    24.84000000    68.07000000
   C     93.36000000    25.81000000    69.48000000
   C     93.12000000    26.98000000    70.43000000
   O     91.96000000    27.33000000    70.73000000
   O     94.06000000    27.62000000    70.94000000
   H     93.32000000    28.20000000    67.97000000
   H     93.20000000    25.29000000    67.44000000
   H     94.44000000    25.85000000    69.30000000
   H     92.98000000    24.89000000    69.92000000
   N     90.68000000    27.01000000    67.51000000
   C     89.26000000    27.16000000    67.26000000
   C     88.45000000    27.24000000    68.55000000
   O     87.23000000    27.30000000    68.51000000
   H     91.23000000    27.85000000    67.41000000
   H     88.97000000    26.27000000    66.71000000
   H     89.05000000    28.04000000    66.64000000
   N     88.96000000    27.34000000    69.78000000
   C     88.30000000    27.62000000    71.04000000
   C     88.62000000    29.08000000    71.36000000
   O     89.80000000    29.41000000    71.44000000
   C     88.79000000    26.62000000    72.08000000
   C     88.32000000    27.00000000    73.47000000
   N     87.03000000    26.80000000    73.72000000
   O     89.09000000    27.49000000    74.30000000
   H     89.96000000    27.29000000    69.86000000
   H     87.24000000    27.47000000    70.81000000
   H     89.87000000    26.50000000    72.06000000
   H     88.36000000    25.70000000    71.67000000
   H     86.46000000    26.37000000    73.00000000
   H     86.55000000    27.01000000    74.58000000
   N     87.65000000    29.99000000    71.35000000
   C     87.84000000    31.41000000    71.13000000
   C     88.71000000    32.16000000    72.13000000
   O     88.95000000    33.36000000    72.13000000
   H     86.69000000    29.69000000    71.42000000
   H     86.86000000    31.88000000    71.05000000
   H     88.34000000    31.50000000    70.16000000
   N     89.17000000    31.47000000    73.17000000
   C     89.99000000    31.95000000    74.27000000
   C     91.47000000    32.20000000    73.99000000
   O     92.08000000    31.53000000    73.16000000
   C     89.86000000    30.94000000    75.40000000
   C     88.57000000    31.00000000    76.20000000
   C     88.49000000    31.87000000    77.29000000
   C     87.53000000    30.13000000    75.88000000
   C     87.36000000    31.80000000    78.10000000
   C     86.36000000    30.10000000    76.65000000
   C     86.27000000    30.97000000    77.75000000
   O     85.13000000    31.06000000    78.50000000
   H     88.94000000    30.49000000    73.23000000
   H     89.61000000    32.92000000    74.58000000
   H     90.69000000    30.89000000    76.10000000
   H     89.85000000    29.99000000    74.86000000
   H     89.28000000    32.51000000    77.66000000
   H     87.51000000    29.39000000    75.10000000
   H     87.16000000    32.45000000    78.95000000
   H     85.50000000    29.50000000    76.38000000
   H     84.46000000    30.54000000    78.06000000
   N     92.03000000    33.17000000    74.72000000
   C     93.40000000    33.64000000    74.80000000
   C     94.43000000    32.61000000    75.23000000
   O     94.09000000    31.44000000    75.42000000
   C     93.85000000    34.54000000    73.65000000
   C     92.74000000    35.53000000    73.29000000
   C     94.35000000    33.76000000    72.44000000
   C     93.00000000    36.76000000    72.43000000
   H     91.42000000    33.62000000    75.39000000
   H     93.51000000    34.29000000    75.66000000
   H     94.67000000    35.12000000    74.08000000
   H     92.29000000    35.89000000    74.21000000
   H     92.00000000    34.95000000    72.74000000
   H     93.63000000    33.07000000    72.00000000
   H     94.71000000    34.48000000    71.70000000
   H     95.26000000    33.26000000    72.76000000
   H     93.29000000    36.43000000    71.43000000
   H     92.10000000    37.37000000    72.41000000
   H     93.78000000    37.34000000    72.93000000
   N     95.73000000    32.88000000    75.36000000
   C     96.87000000    32.05000000    75.65000000
   C     97.61000000    32.42000000    76.92000000
   O     98.11000000    31.50000000    77.57000000
   C     97.75000000    32.09000000    74.40000000
   O     97.96000000    33.39000000    73.90000000
   H     95.88000000    33.88000000    75.32000000
   H     96.58000000    31.00000000    75.77000000
   H     97.31000000    31.44000000    73.64000000
   H     98.74000000    31.66000000    74.55000000
   H     97.57000000    33.41000000    73.02000000
   N     97.77000000    33.68000000    77.35000000
   C     98.27000000    34.10000000    78.64000000
   C     99.63000000    33.55000000    79.05000000
   O     99.78000000    33.01000000    80.14000000
   C     97.20000000    34.00000000    79.72000000
   H     97.26000000    34.42000000    76.89000000
   H     98.41000000    35.18000000    78.55000000
   H     97.10000000    32.92000000    79.81000000
   H     97.61000000    34.50000000    80.60000000
   H     96.25000000    34.44000000    79.40000000
   N    100.72000000    33.92000000    78.37000000
   C    100.90000000    34.80000000    77.24000000
   C    101.72000000    36.01000000    77.67000000
   O    102.51000000    35.95000000    78.60000000
   C    101.40000000    33.92000000    76.09000000
   H    101.62000000    33.56000000    78.67000000
   H     99.88000000    35.11000000    77.02000000
   H    100.93000000    32.94000000    75.95000000
   H    101.32000000    34.46000000    75.15000000
   H    102.44000000    33.66000000    76.24000000
   N    101.43000000    37.21000000    77.15000000
   C    100.57000000    37.55000000    76.03000000
   C     99.43000000    38.37000000    76.63000000
   O     98.26000000    38.01000000    76.53000000
   C    101.26000000    38.29000000    74.89000000
   C    102.49000000    37.55000000    74.38000000
   C    103.23000000    38.46000000    73.42000000
   O    102.86000000    38.61000000    72.23000000
   O    104.25000000    39.02000000    73.87000000
   H    102.04000000    37.94000000    77.51000000
   H    100.08000000    36.61000000    75.78000000
   H    101.64000000    39.14000000    75.46000000
   H    100.50000000    38.55000000    74.15000000
   H    102.18000000    36.64000000    73.86000000
   H    103.18000000    37.25000000    75.17000000
   N     99.72000000    39.43000000    77.39000000
   C     98.70000000    40.35000000    77.85000000
   H     97.79600000    39.79400000    78.09800000
   H     99.05700000    40.87600000    78.73500000
   H     98.47900000    41.07100000    77.06300000
   H    100.70000000    39.63000000    77.56000000
  Ca     92.51000000    29.70000000    71.49000000
   O     94.43000000    29.60000000    73.33000000
   H     94.37000000    28.95000000    74.03000000
   H     94.40000000    30.44000000    73.78000000
   O     94.44000000    30.94000000    70.28000000
   H     94.22000000    31.62000000    69.63000000
   H     95.35000000    30.70000000    70.08000000
   O     91.75000000    28.27000000    73.61000000
   H     92.38000000    27.74000000    74.09000000
   H     90.92000000    27.82000000    73.73000000

Ca 1.00



