%chk=loop4.apoCaM-CA-Ng.Init31.run79.water4.chk
%nprocshared=20
%mem=10GB
%nosave
#b3lyp/svp scf=(tight,noincore,xqc) Test 
#IOP(5/87=12) Density=Current Pop=(MK,readradii) iop(6/33=2) iop(6/42=6)

loop4.apoCaM-CA-Ng.Init31.run79.water4 

   -3  1 
   C     87.25000000    43.10000000    30.88000000
   C     87.03000000    43.23000000    29.38000000
   O     85.87000000    43.39000000    29.01000000
   H     87.96900000    43.85100000    31.20800000
   H     86.30400000    43.25100000    31.40100000
   H     87.63600000    42.10600000    31.10600000
   N     87.96000000    43.20000000    28.42000000
   C     89.40000000    43.10000000    28.53000000
   C     90.09000000    44.42000000    28.81000000
   O     91.29000000    44.39000000    29.11000000
   C     89.91000000    42.29000000    27.34000000
   C     91.36000000    41.86000000    27.51000000
   O     92.02000000    41.75000000    26.45000000
   O     91.78000000    41.62000000    28.66000000
   H     87.57000000    43.64000000    27.59000000
   H     89.68000000    42.47000000    29.37000000
   H     89.85000000    42.87000000    26.42000000
   H     89.46000000    41.29000000    27.30000000
   N     89.38000000    45.55000000    28.72000000
   C     89.61000000    46.79000000    29.44000000
   C     90.16000000    47.94000000    28.61000000
   O     90.99000000    48.72000000    29.07000000
   C     88.25000000    47.18000000    30.01000000
   C     88.50000000    48.19000000    31.12000000
   C     87.26000000    47.80000000    29.02000000
   C     87.30000000    48.73000000    31.90000000
   H     88.43000000    45.39000000    28.42000000
   H     90.34000000    46.69000000    30.24000000
   H     87.81000000    46.31000000    30.50000000
   H     89.07000000    49.01000000    30.68000000
   H     89.22000000    47.84000000    31.85000000
   H     87.10000000    47.22000000    28.11000000
   H     86.28000000    47.90000000    29.47000000
   H     87.58000000    48.81000000    28.77000000
   H     86.62000000    47.91000000    32.16000000
   H     87.64000000    49.32000000    32.75000000
   H     86.68000000    49.36000000    31.27000000
   N     89.98000000    47.90000000    27.29000000
   C     90.22000000    49.01000000    26.38000000
   C     91.58000000    49.17000000    25.72000000
   O     91.93000000    50.26000000    25.27000000
   C     89.04000000    48.96000000    25.40000000
   C     88.82000000    50.28000000    24.69000000
   O     89.18000000    50.40000000    23.50000000
   O     88.39000000    51.26000000    25.33000000
   H     89.42000000    47.16000000    26.91000000
   H     90.10000000    49.93000000    26.95000000
   H     88.10000000    48.65000000    25.86000000
   H     89.27000000    48.24000000    24.62000000
   N     92.38000000    48.10000000    25.76000000
   C     93.57000000    47.99000000    24.93000000
   C     93.29000000    47.44000000    23.54000000
   O     92.15000000    47.07000000    23.28000000
   H     92.06000000    47.39000000    26.39000000
   H     94.35000000    47.36000000    25.36000000
   H     93.99000000    48.98000000    24.76000000
   N     94.35000000    47.20000000    22.77000000
   C     94.26000000    46.87000000    21.36000000
   C     93.57000000    47.99000000    20.59000000
   O     93.47000000    49.07000000    21.16000000
   C     95.66000000    46.59000000    20.82000000
   C     96.64000000    47.75000000    20.88000000
   O     96.80000000    48.42000000    21.92000000
   O     97.17000000    48.05000000    19.79000000
   H     95.22000000    47.66000000    23.01000000
   H     93.65000000    45.98000000    21.23000000
   H     95.62000000    46.26000000    19.78000000
   H     96.12000000    45.79000000    21.40000000
   N     93.12000000    47.82000000    19.34000000
   C     92.93000000    46.63000000    18.53000000
   C     93.00000000    46.88000000    17.03000000
   O     92.75000000    47.98000000    16.56000000
   H     92.78000000    48.67000000    18.91000000
   H     91.91000000    46.30000000    18.72000000
   H     93.50000000    45.77000000    18.89000000
   N     93.17000000    45.84000000    16.21000000
   C     93.45000000    44.46000000    16.54000000
   C     92.32000000    43.74000000    17.26000000
   O     91.28000000    44.26000000    17.68000000
   C     94.85000000    44.24000000    17.10000000
   C     96.10000000    44.93000000    16.55000000
   C     96.40000000    44.58000000    15.10000000
   N     96.96000000    43.40000000    14.81000000
   O     96.13000000    45.43000000    14.25000000
   H     93.15000000    46.11000000    15.23000000
   H     93.43000000    43.96000000    15.57000000
   H     95.18000000    43.22000000    16.91000000
   H     94.92000000    44.38000000    18.18000000
   H     96.97000000    44.67000000    17.15000000
   H     95.95000000    46.00000000    16.70000000
   H     97.27000000    42.64000000    15.39000000
   H     97.15000000    43.24000000    13.83000000
   N     92.62000000    42.47000000    17.53000000
   C     91.70000000    41.59000000    18.23000000
   C     91.64000000    40.22000000    17.58000000
   O     92.68000000    39.81000000    17.07000000
   C     92.10000000    41.48000000    19.70000000
   C     90.90000000    40.95000000    20.48000000
   C     92.56000000    42.79000000    20.32000000
   H     93.30000000    41.96000000    16.98000000
   H     90.71000000    42.04000000    18.14000000
   H     92.94000000    40.78000000    19.77000000
   H     89.95000000    41.42000000    20.24000000
   H     90.87000000    39.86000000    20.36000000
   H     91.01000000    41.03000000    21.57000000
   H     92.66000000    42.75000000    21.40000000
   H     93.61000000    42.94000000    20.05000000
   H     91.85000000    43.57000000    20.05000000
   N     90.50000000    39.52000000    17.50000000
   C     90.39000000    38.19000000    16.95000000
   C     90.90000000    37.11000000    17.90000000
   O     90.12000000    36.26000000    18.32000000
   C     88.95000000    38.01000000    16.49000000
   C     88.77000000    36.79000000    15.59000000
   N     88.47000000    35.61000000    16.14000000
   O     88.84000000    36.94000000    14.37000000
   H     89.87000000    39.86000000    18.21000000
   H     91.04000000    38.10000000    16.08000000
   H     88.55000000    38.86000000    15.94000000
   H     88.22000000    37.95000000    17.30000000
   H     88.56000000    35.53000000    17.15000000
   H     88.32000000    34.88000000    15.46000000
   N     92.15000000    37.21000000    18.37000000
   C     92.82000000    36.32000000    19.29000000
   C     92.61000000    36.68000000    20.76000000
   O     92.28000000    37.80000000    21.14000000
   C     94.33000000    36.19000000    19.12000000
   C     95.12000000    37.43000000    19.48000000
   C     95.66000000    37.64000000    20.75000000
   C     95.29000000    38.41000000    18.49000000
   C     96.32000000    38.84000000    21.03000000
   C     95.98000000    39.60000000    18.74000000
   C     96.47000000    39.84000000    20.05000000
   O     97.14000000    41.01000000    20.25000000
   H     92.74000000    37.92000000    17.96000000
   H     92.38000000    35.34000000    19.12000000
   H     94.58000000    35.79000000    18.13000000
   H     94.64000000    35.44000000    19.85000000
   H     95.71000000    36.84000000    21.48000000
   H     94.96000000    38.14000000    17.51000000
   H     96.58000000    38.97000000    22.07000000
   H     96.28000000    40.28000000    17.96000000
   H     97.44000000    41.07000000    21.15000000
   N     92.74000000    35.73000000    21.69000000
   C     92.77000000    36.02000000    23.11000000
   C     91.39000000    36.40000000    23.62000000
   O     90.43000000    35.65000000    23.41000000
   C     93.31000000    34.78000000    23.80000000
   C     94.79000000    34.53000000    23.51000000
   C     95.30000000    33.27000000    24.18000000
   O     96.17000000    33.41000000    25.06000000
   O     95.04000000    32.15000000    23.69000000
   H     93.05000000    34.81000000    21.40000000
   H     93.45000000    36.87000000    23.19000000
   H     92.71000000    33.91000000    23.52000000
   H     93.08000000    34.95000000    24.85000000
   H     95.28000000    35.49000000    23.70000000
   H     94.96000000    34.38000000    22.44000000
   N     91.21000000    37.57000000    24.23000000
   C     89.98000000    37.92000000    24.90000000
   C     89.07000000    38.70000000    23.95000000
   O     88.72000000    39.85000000    24.23000000
   C     90.39000000    38.58000000    26.21000000
   C     90.99000000    37.61000000    27.22000000
   C     91.42000000    38.25000000    28.53000000
   O     90.53000000    38.90000000    29.14000000
   O     92.61000000    38.23000000    28.90000000
   H     92.00000000    38.20000000    24.14000000
   H     89.39000000    37.04000000    25.16000000
   H     89.42000000    38.88000000    26.62000000
   H     91.08000000    39.40000000    26.03000000
   H     91.84000000    37.19000000    26.69000000
   H     90.25000000    36.90000000    27.60000000
   N     88.78000000    38.06000000    22.82000000
   C     87.98000000    38.72000000    21.81000000
   H     87.08100000    39.12900000    22.27000000
   H     88.55700000    39.52800000    21.35900000
   H     87.69900000    38.00100000    21.04100000
   H     89.06000000    37.11000000    22.64000000
  Ca     92.45000000    40.18000000    30.76000000
   O     93.27000000    42.69000000    31.17000000
   H     93.03000000    43.35000000    30.52000000
   H     94.17000000    42.91000000    31.41000000
   O     91.94000000    37.82000000    31.75000000
   H     91.37000000    37.15000000    31.37000000
   H     92.39000000    37.38000000    32.47000000
   O     94.60000000    40.37000000    29.27000000
   H     94.53000000    40.14000000    28.34000000
   H     95.54000000    40.40000000    29.44000000
   O     94.56000000    39.61000000    32.23000000
   H     95.25000000    38.95000000    32.16000000
   H     94.81000000    40.13000000    33.00000000

Ca 1.00



