%chk=loop1.apoCaM-CA-Ng.Init31.run99.water4.chk
%nprocshared=20
%mem=10GB
%nosave
#b3lyp/svp scf=(tight,noincore,xqc) Test 
#IOP(5/87=12) Density=Current Pop=(MK,readradii) iop(6/33=2) iop(6/42=6)

loop1.apoCaM-CA-Ng.Init31.run99.water4 

   0  1 
   C     63.11000000    30.25000000    49.08000000
   C     62.06000000    29.93000000    48.03000000
   O     60.99000000    30.53000000    47.90000000
   H     63.96500000    30.72900000    48.60400000
   H     62.68600000    30.92300000    49.82600000
   H     63.43400000    29.32800000    49.56400000
   N     62.43000000    29.02000000    47.13000000
   C     61.83000000    28.91000000    45.81000000
   C     61.85000000    27.51000000    45.22000000
   O     62.60000000    26.62000000    45.59000000
   C     62.34000000    30.05000000    44.93000000
   C     61.36000000    30.37000000    43.81000000
   O     60.24000000    29.84000000    43.68000000
   O     61.70000000    30.97000000    42.76000000
   H     63.17000000    28.37000000    47.34000000
   H     60.76000000    29.04000000    45.93000000
   H     63.21000000    29.68000000    44.41000000
   H     62.53000000    30.99000000    45.45000000
   N     61.04000000    27.27000000    44.18000000
   C     60.97000000    26.00000000    43.48000000
   C     62.27000000    25.62000000    42.78000000
   O     62.69000000    24.47000000    42.92000000
   C     59.75000000    25.99000000    42.55000000
   C     59.59000000    24.68000000    41.79000000
   C     58.36000000    24.69000000    40.89000000
   C     58.39000000    23.55000000    39.88000000
   N     57.65000000    23.83000000    38.63000000
   H     60.40000000    28.03000000    43.98000000
   H     60.84000000    25.23000000    44.23000000
   H     59.73000000    26.80000000    41.83000000
   H     58.84000000    26.05000000    43.14000000
   H     59.67000000    23.79000000    42.42000000
   H     60.43000000    24.57000000    41.11000000
   H     58.33000000    25.64000000    40.36000000
   H     57.46000000    24.55000000    41.50000000
   H     57.91000000    22.67000000    40.30000000
   H     59.43000000    23.33000000    39.61000000
   H     56.72000000    24.09000000    38.90000000
   H     58.22000000    24.55000000    38.20000000
   H     57.53000000    23.02000000    38.05000000
   N     62.91000000    26.45000000    41.95000000
   C     62.64000000    27.76000000    41.41000000
   C     63.96000000    28.51000000    41.26000000
   O     65.02000000    27.89000000    41.17000000
   C     62.09000000    27.54000000    40.01000000
   C     61.57000000    28.78000000    39.29000000
   O     61.12000000    28.65000000    38.13000000
   O     61.28000000    29.80000000    39.95000000
   H     63.82000000    26.09000000    41.68000000
   H     61.96000000    28.37000000    42.02000000
   H     61.16000000    26.97000000    40.10000000
   H     62.85000000    27.08000000    39.38000000
   N     63.88000000    29.84000000    41.28000000
   C     64.94000000    30.83000000    41.28000000
   C     64.62000000    32.05000000    40.43000000
   O     65.25000000    33.10000000    40.55000000
   H     62.95000000    30.16000000    41.51000000
   H     65.81000000    30.31000000    40.86000000
   H     65.24000000    31.11000000    42.29000000
   N     63.61000000    31.99000000    39.56000000
   C     63.23000000    33.08000000    38.69000000
   C     64.14000000    33.30000000    37.49000000
   O     64.23000000    32.39000000    36.67000000
   C     61.84000000    32.77000000    38.14000000
   C     60.71000000    32.63000000    39.16000000
   O     60.91000000    32.88000000    40.37000000
   O     59.57000000    32.24000000    38.83000000
   H     63.17000000    31.11000000    39.34000000
   H     63.15000000    33.95000000    39.34000000
   H     61.93000000    31.78000000    37.69000000
   H     61.51000000    33.52000000    37.43000000
   N     64.78000000    34.46000000    37.29000000
   C     64.64000000    35.75000000    37.93000000
   C     63.46000000    36.49000000    37.33000000
   O     62.72000000    37.04000000    38.14000000
   H     65.62000000    34.39000000    36.73000000
   H     65.56000000    36.32000000    37.82000000
   H     64.40000000    35.59000000    38.98000000
   N     63.25000000    36.56000000    36.01000000
   C     62.32000000    37.44000000    35.34000000
   C     62.57000000    38.88000000    35.76000000
   O     61.69000000    39.44000000    36.42000000
   C     60.85000000    37.04000000    35.36000000
   C     60.67000000    35.66000000    34.73000000
   O     59.98000000    37.90000000    34.67000000
   H     63.93000000    36.20000000    35.36000000
   H     62.58000000    37.35000000    34.28000000
   H     60.62000000    37.00000000    36.43000000
   H     59.81000000    38.72000000    35.15000000
   H     59.60000000    35.45000000    34.75000000
   H     61.07000000    35.63000000    33.72000000
   H     61.21000000    34.90000000    35.30000000
   N     63.65000000    39.47000000    35.24000000
   C     64.08000000    40.85000000    35.37000000
   C     63.17000000    41.95000000    34.84000000
   O     63.65000000    43.00000000    34.40000000
   C     64.62000000    41.20000000    36.75000000
   C     65.44000000    40.06000000    37.36000000
   C     65.51000000    42.44000000    36.75000000
   C     65.73000000    40.31000000    38.84000000
   H     64.33000000    38.90000000    34.76000000
   H     65.03000000    40.87000000    34.84000000
   H     63.75000000    41.48000000    37.34000000
   H     66.31000000    39.94000000    36.71000000
   H     64.89000000    39.12000000    37.39000000
   H     64.92000000    43.31000000    36.45000000
   H     65.96000000    42.66000000    37.71000000
   H     66.33000000    42.33000000    36.04000000
   H     66.44000000    41.11000000    39.06000000
   H     64.82000000    40.48000000    39.42000000
   H     66.12000000    39.45000000    39.37000000
   N     61.88000000    41.71000000    34.62000000
   C     60.98000000    42.47000000    33.78000000
   C     60.24000000    43.51000000    34.62000000
   O     60.21000000    43.40000000    35.84000000
   C     59.98000000    41.56000000    33.08000000
   C     59.02000000    40.86000000    34.04000000
   O     60.86000000    40.58000000    32.57000000
   H     61.47000000    40.89000000    35.05000000
   H     61.57000000    43.06000000    33.08000000
   H     59.51000000    42.10000000    32.26000000
   H     61.58000000    40.99000000    32.08000000
   H     58.27000000    41.58000000    34.35000000
   H     58.56000000    39.99000000    33.57000000
   H     59.40000000    40.56000000    35.02000000
   N     59.66000000    44.53000000    33.98000000
   C     58.71000000    45.44000000    34.59000000
   C     57.53000000    44.63000000    35.09000000
   O     57.05000000    43.79000000    34.33000000
   C     58.30000000    46.52000000    33.59000000
   C     57.17000000    47.49000000    33.95000000
   O     59.46000000    47.31000000    33.54000000
   H     59.82000000    44.61000000    32.98000000
   H     59.17000000    45.83000000    35.50000000
   H     58.03000000    46.01000000    32.66000000
   H     60.10000000    46.63000000    33.31000000
   H     57.57000000    48.22000000    34.65000000
   H     56.91000000    48.02000000    33.04000000
   H     56.27000000    47.00000000    34.32000000
   N     56.96000000    44.81000000    36.29000000
   C     55.99000000    43.96000000    36.95000000
   C     56.18000000    42.46000000    36.77000000
   O     55.68000000    41.85000000    35.82000000
   C     54.62000000    44.43000000    36.48000000
   C     53.47000000    43.93000000    37.35000000
   C     52.11000000    44.24000000    36.73000000
   C     50.93000000    44.24000000    37.70000000
   N     49.67000000    44.16000000    36.94000000
   H     57.36000000    45.53000000    36.88000000
   H     56.03000000    44.15000000    38.02000000
   H     54.40000000    43.93000000    35.54000000
   H     54.60000000    45.51000000    36.39000000
   H     53.45000000    44.34000000    38.36000000
   H     53.48000000    42.85000000    37.54000000
   H     51.88000000    43.44000000    36.04000000
   H     52.21000000    45.23000000    36.28000000
   H     50.90000000    45.15000000    38.30000000
   H     51.04000000    43.39000000    38.38000000
   H     48.89000000    44.11000000    37.58000000
   H     49.58000000    45.00000000    36.38000000
   H     49.62000000    43.32000000    36.39000000
   N     56.80000000    41.86000000    37.78000000
   C     57.01000000    40.43000000    37.72000000
   C     58.49000000    40.06000000    37.64000000
   O     58.80000000    38.96000000    37.18000000
   C     56.31000000    39.67000000    38.84000000
   C     54.79000000    39.85000000    38.82000000
   C     54.15000000    38.76000000    39.67000000
   O     53.84000000    37.76000000    39.00000000
   O     54.18000000    38.70000000    40.92000000
   H     57.03000000    42.43000000    38.59000000
   H     56.62000000    40.06000000    36.78000000
   H     56.64000000    40.07000000    39.80000000
   H     56.63000000    38.65000000    38.67000000
   H     54.41000000    39.73000000    37.80000000
   H     54.50000000    40.83000000    39.19000000
   N     59.55000000    40.80000000    37.96000000
   C     59.63000000    42.00000000    38.77000000
   H     60.19600000    42.76200000    38.23400000
   H     58.62500000    42.37000000    38.97300000
   H     60.13000000    41.77100000    39.71100000
   H     60.39000000    40.36000000    37.62000000
  Ca     59.53000000    30.94000000    41.46000000
   O     59.02000000    32.60000000    43.53000000
   H     59.63000000    33.32000000    43.40000000
   H     59.14000000    32.34000000    44.45000000
   O     58.18000000    29.70000000    39.33000000
   H     58.65000000    29.80000000    38.50000000
   H     57.26000000    29.62000000    39.07000000
   O     57.68000000    29.26000000    42.35000000
   H     57.01000000    29.74000000    42.82000000
   H     57.20000000    28.62000000    41.82000000
   O     57.30000000    32.28000000    41.15000000
   H     56.73000000    32.62000000    41.83000000
   H     56.95000000    32.63000000    40.33000000

Ca 1.00



