%chk=loop2.apoCaM-CA-Ng.Init293.run56.water6.chk
%nprocshared=20
%mem=10GB
%nosave
#b3lyp/svp scf=(tight,noincore,xqc) Test 
#IOP(5/87=12) Density=Current Pop=(MK,readradii) iop(6/33=2) iop(6/42=6)

loop2.apoCaM-CA-Ng.Init293.run56.water6 

   -2  1 
   C     69.48000000    89.68000000   100.15000000
   C     70.83000000    89.33000000   100.77000000
   O     70.86000000    88.45000000   101.62000000
   H     68.77300000    89.93300000   100.94000000
   H     69.59700000    90.53200000    99.48100000
   H     69.10500000    88.82500000    99.58800000
   N     71.94000000    90.02000000   100.49000000
   C     73.17000000    89.85000000   101.23000000
   C     72.99000000    90.14000000   102.71000000
   O     73.50000000    89.40000000   103.55000000
   C     74.34000000    90.66000000   100.66000000
   C     75.70000000    90.16000000   101.12000000
   O     76.70000000    90.89000000   100.95000000
   O     75.83000000    89.00000000   101.55000000
   H     71.94000000    90.78000000    99.83000000
   H     73.39000000    88.79000000   101.05000000
   H     74.24000000    91.66000000   101.09000000
   H     74.36000000    90.77000000    99.58000000
   N     72.28000000    91.19000000   103.13000000
   C     72.19000000    91.76000000   104.46000000
   C     71.84000000    90.83000000   105.61000000
   O     72.25000000    90.99000000   106.76000000
   C     73.35000000    92.73000000   104.71000000
   H     71.81000000    91.76000000   102.45000000
   H     71.33000000    92.43000000   104.37000000
   H     74.31000000    92.23000000   104.81000000
   H     73.29000000    93.59000000   104.04000000
   H     73.10000000    93.24000000   105.64000000
   N     71.01000000    89.83000000   105.30000000
   C     70.60000000    88.87000000   106.31000000
   C     71.72000000    88.00000000   106.85000000
   O     71.70000000    87.62000000   108.02000000
   C     69.68000000    89.47000000   107.37000000
   C     68.59000000    90.37000000   106.80000000
   O     67.70000000    89.92000000   106.05000000
   O     68.60000000    91.55000000   107.20000000
   H     70.60000000    89.82000000   104.38000000
   H     69.98000000    88.19000000   105.73000000
   H     70.21000000    90.05000000   108.13000000
   H     69.09000000    88.69000000   107.83000000
   N     72.69000000    87.67000000   105.99000000
   C     73.90000000    87.00000000   106.43000000
   C     73.73000000    85.51000000   106.68000000
   O     72.90000000    84.87000000   106.03000000
   H     72.72000000    88.08000000   105.07000000
   H     74.20000000    87.47000000   107.37000000
   H     74.75000000    87.14000000   105.77000000
   N     74.43000000    84.82000000   107.59000000
   C     74.35000000    83.46000000   108.07000000
   C     74.18000000    82.35000000   107.03000000
   O     73.40000000    81.41000000   107.11000000
   C     73.27000000    83.52000000   109.14000000
   C     73.62000000    84.36000000   110.36000000
   N     74.71000000    84.05000000   111.05000000
   O     73.14000000    85.47000000   110.60000000
   H     75.09000000    85.41000000   108.07000000
   H     75.30000000    83.30000000   108.57000000
   H     72.99000000    82.50000000   109.40000000
   H     72.29000000    83.92000000   108.87000000
   H     75.20000000    83.16000000   110.98000000
   H     75.25000000    84.72000000   111.58000000
   N     74.97000000    82.45000000   105.96000000
   C     75.06000000    81.51000000   104.86000000
   C     74.07000000    81.85000000   103.76000000
   O     74.03000000    81.20000000   102.71000000
   H     75.51000000    83.30000000   105.95000000
   H     74.79000000    80.52000000   105.23000000
   H     76.06000000    81.57000000   104.44000000
   N     73.24000000    82.88000000   103.94000000
   C     72.40000000    83.45000000   102.91000000
   C     70.96000000    83.01000000   103.07000000
   O     70.48000000    82.84000000   104.19000000
   C     72.57000000    84.97000000   102.80000000
   C     73.92000000    85.66000000   102.96000000
   O     72.13000000    85.34000000   101.51000000
   H     73.20000000    83.26000000   104.88000000
   H     72.78000000    83.05000000   101.97000000
   H     71.89000000    85.42000000   103.53000000
   H     72.06000000    86.25000000   101.24000000
   H     73.83000000    86.69000000   103.30000000
   H     74.50000000    85.19000000   103.76000000
   H     74.49000000    85.59000000   102.04000000
   N     70.23000000    83.09000000   101.95000000
   C     68.82000000    82.79000000   101.89000000
   C     67.98000000    83.72000000   102.75000000
   O     68.17000000    84.93000000   102.72000000
   C     68.36000000    82.66000000   100.44000000
   C     68.67000000    83.76000000    99.43000000
   C     68.86000000    81.31000000    99.92000000
   C     67.67000000    83.89000000    98.29000000
   H     70.75000000    83.27000000   101.10000000
   H     68.64000000    81.85000000   102.43000000
   H     67.28000000    82.52000000   100.38000000
   H     69.63000000    83.51000000    98.97000000
   H     68.66000000    84.72000000    99.94000000
   H     69.95000000    81.33000000    99.88000000
   H     68.49000000    80.46000000   100.48000000
   H     68.42000000    81.20000000    98.92000000
   H     67.74000000    82.96000000    97.73000000
   H     66.66000000    84.00000000    98.70000000
   H     67.89000000    84.70000000    97.60000000
   N     67.05000000    83.20000000   103.55000000
   C     66.28000000    84.02000000   104.47000000
   C     66.42000000    83.39000000   105.85000000
   O     65.48000000    82.93000000   106.49000000
   C     64.80000000    84.06000000   104.11000000
   C     63.99000000    85.00000000   105.00000000
   O     64.62000000    85.93000000   105.55000000
   O     62.80000000    84.73000000   105.27000000
   H     66.82000000    82.22000000   103.42000000
   H     66.64000000    85.04000000   104.54000000
   H     64.45000000    83.04000000   104.02000000
   H     64.73000000    84.22000000   103.04000000
   N     67.62000000    83.17000000   106.39000000
   C     67.85000000    82.71000000   107.74000000
   C     67.25000000    81.38000000   108.16000000
   O     66.69000000    81.36000000   109.26000000
   C     69.32000000    82.83000000   108.11000000
   C     69.77000000    82.20000000   109.41000000
   C     70.37000000    80.94000000   109.42000000
   C     69.58000000    82.91000000   110.60000000
   C     70.58000000    80.31000000   110.65000000
   C     69.78000000    82.27000000   111.83000000
   C     70.36000000    80.99000000   111.86000000
   H     68.41000000    83.54000000   105.88000000
   H     67.28000000    83.34000000   108.42000000
   H     69.56000000    83.90000000   108.13000000
   H     69.94000000    82.31000000   107.38000000
   H     70.55000000    80.38000000   108.51000000
   H     69.18000000    83.91000000   110.59000000
   H     70.97000000    79.30000000   110.72000000
   H     69.57000000    82.75000000   112.78000000
   H     70.51000000    80.45000000   112.78000000
   N     67.41000000    80.29000000   107.42000000
   C     68.20000000    80.15000000   106.21000000
   C     67.31000000    80.07000000   104.98000000
   O     67.82000000    79.76000000   103.90000000
   C     68.92000000    78.83000000   106.46000000
   C     67.82000000    77.99000000   107.12000000
   C     67.11000000    79.00000000   108.01000000
   H     68.95000000    80.91000000   106.01000000
   H     69.28000000    78.31000000   105.58000000
   H     69.73000000    78.91000000   107.18000000
   H     67.04000000    77.60000000   106.47000000
   H     68.18000000    77.23000000   107.82000000
   H     66.03000000    78.89000000   108.17000000
   H     67.45000000    78.88000000   109.04000000
   N     66.01000000    80.37000000   105.10000000
   C     64.94000000    79.74000000   104.35000000
   C     64.93000000    80.07000000   102.86000000
   O     65.29000000    81.19000000   102.49000000
   C     63.65000000    80.08000000   105.08000000
   C     63.46000000    79.28000000   106.37000000
   C     62.89000000    77.90000000   106.06000000
   O     61.72000000    77.54000000   106.32000000
   O     63.68000000    77.08000000   105.53000000
   H     65.71000000    80.86000000   105.93000000
   H     65.13000000    78.67000000   104.42000000
   H     62.82000000    79.90000000   104.40000000
   H     63.66000000    81.13000000   105.35000000
   H     62.63000000    79.81000000   106.82000000
   H     64.32000000    79.23000000   107.05000000
   N     64.42000000    79.15000000   102.05000000
   C     64.31000000    79.32000000   100.61000000
   H     63.82500000    80.27200000   100.39300000
   H     65.30500000    79.31100000   100.16500000
   H     63.71700000    78.50700000   100.19200000
   H     64.36000000    78.21000000   102.41000000
  Ca     65.60000000    88.34000000   106.03800000
   O     63.76000000    88.50000000   103.99800000
   H     63.42000000    89.13000000   103.36800000
   H     63.01000000    87.95000000   104.21800000
   O     64.77000000    90.82000000   105.74800000
   H     64.34000000    91.25000000   106.47800000
   H     64.53000000    91.34000000   104.97800000
   O     67.48000000    86.62000000   106.99800000
   H     68.13000000    86.04000000   106.62800000
   H     67.52000000    86.47000000   107.93800000
   O     66.95000000    88.11000000   103.70800000
   H     67.87000000    87.89000000   103.63800000
   H     66.71000000    88.42000000   102.83800000
   O     63.08000000    88.69000000   106.97800000
   H     62.71000000    87.88000000   107.32800000
   H     62.79000000    89.38000000   107.57800000
   O     66.14000000    88.93000000   108.66800000
   H     65.46000000    89.54000000   108.95800000
   H     66.86000000    89.07000000   109.28800000

Ca 1.00



