%chk=loop1.apoCaM-CA-Ng.Init31.run58.water4.chk
%nprocshared=20
%mem=10GB
%nosave
#b3lyp/svp scf=(tight,noincore,xqc) Test 
#IOP(5/87=12) Density=Current Pop=(MK,readradii) iop(6/33=2) iop(6/42=6)

loop1.apoCaM-CA-Ng.Init31.run58.water4 

   0  1 
   C     74.84000000    82.93000000    15.84000000
   C     74.35000000    83.79000000    14.68000000
   O     74.51000000    85.00000000    14.75000000
   H     75.73100000    83.38200000    16.27500000
   H     74.06000000    82.86300000    16.59800000
   H     75.08000000    81.93100000    15.47600000
   N     73.76000000    83.19000000    13.64000000
   C     73.38000000    83.87000000    12.43000000
   C     71.88000000    84.11000000    12.31000000
   O     71.06000000    83.64000000    13.10000000
   C     73.93000000    83.04000000    11.28000000
   C     73.99000000    83.71000000     9.91000000
   O     73.88000000    84.94000000     9.75000000
   O     74.20000000    83.04000000     8.87000000
   H     73.58000000    82.19000000    13.70000000
   H     73.79000000    84.88000000    12.47000000
   H     73.22000000    82.21000000    11.30000000
   H     74.90000000    82.58000000    11.47000000
   N     71.46000000    84.90000000    11.32000000
   C     70.06000000    85.19000000    11.08000000
   C     69.22000000    83.97000000    10.73000000
   O     68.17000000    83.86000000    11.37000000
   C     70.07000000    86.37000000    10.12000000
   C     68.67000000    86.50000000     9.53000000
   C     68.68000000    87.33000000     8.24000000
   C     67.30000000    87.51000000     7.62000000
   N     67.34000000    88.39000000     6.44000000
   H     72.20000000    85.21000000    10.71000000
   H     69.58000000    85.53000000    12.00000000
   H     70.79000000    86.20000000     9.32000000
   H     70.42000000    87.29000000    10.59000000
   H     68.06000000    86.96000000    10.30000000
   H     68.20000000    85.57000000     9.22000000
   H     69.42000000    86.98000000     7.52000000
   H     69.08000000    88.31000000     8.52000000
   H     66.52000000    87.87000000     8.29000000
   H     66.86000000    86.55000000     7.36000000
   H     67.64000000    89.31000000     6.73000000
   H     68.03000000    88.02000000     5.81000000
   H     66.45000000    88.62000000     6.02000000
   N     69.39000000    83.09000000     9.74000000
   C     70.56000000    82.88000000     8.91000000
   C     70.80000000    81.40000000     8.65000000
   O     69.86000000    80.64000000     8.44000000
   C     70.30000000    83.65000000     7.61000000
   C     71.34000000    83.32000000     6.56000000
   O     72.50000000    83.66000000     6.87000000
   O     71.14000000    82.71000000     5.48000000
   H     68.64000000    82.48000000     9.47000000
   H     71.43000000    83.26000000     9.45000000
   H     70.52000000    84.70000000     7.81000000
   H     69.31000000    83.51000000     7.17000000
   N     72.08000000    81.05000000     8.51000000
   C     72.45000000    79.78000000     7.92000000
   C     73.95000000    79.53000000     7.96000000
   O     74.37000000    78.65000000     8.70000000
   H     72.77000000    81.78000000     8.45000000
   H     72.13000000    79.71000000     6.88000000
   H     72.06000000    79.03000000     8.61000000
   N     74.79000000    80.25000000     7.20000000
   C     76.22000000    80.10000000     7.07000000
   C     76.72000000    78.78000000     6.51000000
   O     76.04000000    78.04000000     5.81000000
   C     76.90000000    81.26000000     6.36000000
   C     76.34000000    82.66000000     6.59000000
   O     76.86000000    83.50000000     7.36000000
   O     75.40000000    83.02000000     5.84000000
   H     74.41000000    80.95000000     6.58000000
   H     76.62000000    80.17000000     8.09000000
   H     76.72000000    81.03000000     5.31000000
   H     77.95000000    81.30000000     6.64000000
   N     77.96000000    78.36000000     6.79000000
   C     78.93000000    79.04000000     7.62000000
   C     80.12000000    79.67000000     6.91000000
   O     80.82000000    80.43000000     7.58000000
   H     78.29000000    77.49000000     6.38000000
   H     79.46000000    78.25000000     8.14000000
   H     78.50000000    79.71000000     8.37000000
   N     80.29000000    79.39000000     5.61000000
   C     81.43000000    79.74000000     4.78000000
   C     82.76000000    79.48000000     5.47000000
   O     83.68000000    80.29000000     5.60000000
   C     81.31000000    81.17000000     4.25000000
   C     80.03000000    81.33000000     3.44000000
   O     82.33000000    81.61000000     3.38000000
   H     79.62000000    78.75000000     5.21000000
   H     81.42000000    79.09000000     3.91000000
   H     81.19000000    81.92000000     5.04000000
   H     82.95000000    81.89000000     4.05000000
   H     79.92000000    80.64000000     2.59000000
   H     79.18000000    81.24000000     4.11000000
   H     79.93000000    82.37000000     3.13000000
   N     82.90000000    78.23000000     5.90000000
   C     84.10000000    77.48000000     6.20000000
   C     85.05000000    77.54000000     5.01000000
   O     85.10000000    76.56000000     4.27000000
   C     84.66000000    77.71000000     7.60000000
   C     83.59000000    77.62000000     8.69000000
   C     85.82000000    76.76000000     7.86000000
   C     82.99000000    76.27000000     9.07000000
   H     82.02000000    77.73000000     5.96000000
   H     83.81000000    76.44000000     6.26000000
   H     85.20000000    78.66000000     7.65000000
   H     82.76000000    78.20000000     8.29000000
   H     84.07000000    78.01000000     9.58000000
   H     86.65000000    77.05000000     7.21000000
   H     86.14000000    76.86000000     8.90000000
   H     85.49000000    75.75000000     7.64000000
   H     82.04000000    76.36000000     9.61000000
   H     82.75000000    75.69000000     8.18000000
   H     83.70000000    75.76000000     9.71000000
   N     85.85000000    78.59000000     4.81000000
   C     86.91000000    78.78000000     3.84000000
   C     87.93000000    79.83000000     4.27000000
   O     87.56000000    80.67000000     5.09000000
   C     86.39000000    79.22000000     2.47000000
   C     85.57000000    80.50000000     2.40000000
   O     85.70000000    78.16000000     1.85000000
   H     85.81000000    79.32000000     5.50000000
   H     87.43000000    77.83000000     3.76000000
   H     87.29000000    79.36000000     1.86000000
   H     85.17000000    77.70000000     2.51000000
   H     85.07000000    80.53000000     1.43000000
   H     84.97000000    80.50000000     3.31000000
   H     86.20000000    81.39000000     2.42000000
   N     89.17000000    79.76000000     3.78000000
   C     90.07000000    80.83000000     4.17000000
   C     89.69000000    82.24000000     3.73000000
   O     88.99000000    82.34000000     2.73000000
   C     91.50000000    80.56000000     3.69000000
   C     91.95000000    79.14000000     4.01000000
   O     91.63000000    80.76000000     2.30000000
   H     89.49000000    79.17000000     3.04000000
   H     90.14000000    80.82000000     5.26000000
   H     92.17000000    81.30000000     4.13000000
   H     91.26000000    79.96000000     1.94000000
   H     91.33000000    78.44000000     3.44000000
   H     92.98000000    79.05000000     3.69000000
   H     91.93000000    78.94000000     5.08000000
   N     90.06000000    83.21000000     4.56000000
   C     89.78000000    84.61000000     4.30000000
   C     88.31000000    84.98000000     4.21000000
   O     88.01000000    86.02000000     3.62000000
   C     90.57000000    85.12000000     3.10000000
   C     92.03000000    84.69000000     2.94000000
   C     92.90000000    85.02000000     4.15000000
   C     93.14000000    86.51000000     4.40000000
   N     93.95000000    86.86000000     5.57000000
   H     90.52000000    82.90000000     5.41000000
   H     90.10000000    85.17000000     5.17000000
   H     90.48000000    86.20000000     3.03000000
   H     90.07000000    84.73000000     2.21000000
   H     92.37000000    85.18000000     2.03000000
   H     92.11000000    83.62000000     2.75000000
   H     93.90000000    84.61000000     3.99000000
   H     92.52000000    84.52000000     5.04000000
   H     92.20000000    87.04000000     4.51000000
   H     93.54000000    87.03000000     3.53000000
   H     93.49000000    86.61000000     6.44000000
   H     94.89000000    86.52000000     5.44000000
   H     94.02000000    87.86000000     5.70000000
   N     87.48000000    84.42000000     5.09000000
   C     86.05000000    84.67000000     5.06000000
   C     85.20000000    83.47000000     5.44000000
   O     84.22000000    83.23000000     4.73000000
   C     85.57000000    85.91000000     5.82000000
   C     85.63000000    87.20000000     5.00000000
   C     84.80000000    88.35000000     5.54000000
   O     85.31000000    89.28000000     6.21000000
   O     83.58000000    88.47000000     5.28000000
   H     87.80000000    83.61000000     5.59000000
   H     85.92000000    84.70000000     3.98000000
   H     86.22000000    85.93000000     6.69000000
   H     84.58000000    85.73000000     6.23000000
   H     85.37000000    87.03000000     3.95000000
   H     86.66000000    87.51000000     5.10000000
   N     85.52000000    82.62000000     6.41000000
   C     86.50000000    82.69000000     7.47000000
   H     87.35900000    83.26900000     7.13200000
   H     86.05900000    83.17200000     8.34200000
   H     86.82200000    81.68300000     7.73500000
   H     84.93000000    81.80000000     6.50000000
  Ca     74.61000000    85.06000000     7.19000000
   O     73.42000000    85.09000000     4.81000000
   H     72.85000000    84.35000000     5.04000000
   H     72.93000000    85.57000000     4.14000000
   O     73.32000000    87.38000000     6.83000000
   H     73.13000000    87.87000000     6.02000000
   H     72.83000000    87.84000000     7.51000000
   O     76.87000000    86.82000000     8.18000000
   H     77.18000000    87.28000000     7.39000000
   H     77.47000000    87.10000000     8.87000000
   O     76.40000000    86.13000000     5.44000000
   H     77.35000000    86.04000000     5.36000000
   H     76.14000000    86.59000000     4.64000000

Ca 1.00



