%chk=loop4.apoCaM-CA-Ng.Init295.run36.water3.chk
%nprocshared=20
%mem=10GB
%nosave
#b3lyp/svp scf=(tight,noincore,xqc) Test 
#IOP(5/87=12) Density=Current Pop=(MK,readradii) iop(6/33=2) iop(6/42=6)

loop4.apoCaM-CA-Ng.Init295.run36.water3 

   -3  1 
   C     84.58000000    36.40000000    73.39000000
   C     85.78000000    35.71000000    74.03000000
   O     86.83000000    35.66000000    73.39000000
   H     83.77000000    36.46700000    74.11600000
   H     84.86400000    37.40300000    73.07000000
   H     84.24700000    35.82400000    72.52700000
   N     85.72000000    35.14000000    75.23000000
   C     86.82000000    34.72000000    76.07000000
   C     87.85000000    35.78000000    76.41000000
   O     89.03000000    35.52000000    76.62000000
   C     87.43000000    33.40000000    75.60000000
   C     86.44000000    32.30000000    75.23000000
   O     86.60000000    31.63000000    74.18000000
   O     85.37000000    32.02000000    75.81000000
   H     84.79000000    35.12000000    75.62000000
   H     86.44000000    34.43000000    77.05000000
   H     88.13000000    33.02000000    76.34000000
   H     88.01000000    33.67000000    74.72000000
   N     87.37000000    37.01000000    76.63000000
   C     88.06000000    38.21000000    77.08000000
   C     87.55000000    38.68000000    78.43000000
   O     86.35000000    38.88000000    78.64000000
   C     87.87000000    39.38000000    76.13000000
   C     88.44000000    39.12000000    74.74000000
   C     88.40000000    40.73000000    76.63000000
   C     89.96000000    39.19000000    74.65000000
   H     86.36000000    37.00000000    76.65000000
   H     89.12000000    37.98000000    77.18000000
   H     86.81000000    39.43000000    75.85000000
   H     88.10000000    39.88000000    74.05000000
   H     88.14000000    38.11000000    74.45000000
   H     87.66000000    41.21000000    77.28000000
   H     89.42000000    40.69000000    76.99000000
   H     88.40000000    41.44000000    75.81000000
   H     90.26000000    40.20000000    74.94000000
   H     90.42000000    38.51000000    75.36000000
   H     90.36000000    38.95000000    73.67000000
   N     88.39000000    38.94000000    79.44000000
   C     89.79000000    38.64000000    79.63000000
   C     90.17000000    37.17000000    79.60000000
   O     91.25000000    36.84000000    79.10000000
   C     90.17000000    39.20000000    80.99000000
   C     89.82000000    40.67000000    81.19000000
   O     90.74000000    41.52000000    81.26000000
   O     88.65000000    41.10000000    81.31000000
   H     87.94000000    39.35000000    80.25000000
   H     90.43000000    39.17000000    78.92000000
   H     91.25000000    39.04000000    81.06000000
   H     89.63000000    38.66000000    81.77000000
   N     89.26000000    36.30000000    80.05000000
   C     89.32000000    34.86000000    80.19000000
   C     90.61000000    34.37000000    80.84000000
   O     91.04000000    34.92000000    81.85000000
   H     88.46000000    36.81000000    80.38000000
   H     89.13000000    34.33000000    79.25000000
   H     88.49000000    34.56000000    80.82000000
   N     91.33000000    33.43000000    80.22000000
   C     92.46000000    32.69000000    80.73000000
   C     93.70000000    33.06000000    79.93000000
   O     94.80000000    32.98000000    80.46000000
   C     92.16000000    31.19000000    80.81000000
   C     91.73000000    30.57000000    79.49000000
   O     92.27000000    31.03000000    78.46000000
   O     91.02000000    29.54000000    79.45000000
   H     91.10000000    33.11000000    79.29000000
   H     92.75000000    33.02000000    81.73000000
   H     91.30000000    31.10000000    81.47000000
   H     93.02000000    30.73000000    81.30000000
   N     93.54000000    33.67000000    78.75000000
   C     94.55000000    33.97000000    77.75000000
   C     94.91000000    32.99000000    76.64000000
   O     95.76000000    33.31000000    75.80000000
   H     92.59000000    33.87000000    78.48000000
   H     95.50000000    34.09000000    78.25000000
   H     94.32000000    34.94000000    77.29000000
   N     94.35000000    31.78000000    76.65000000
   C     94.56000000    30.67000000    75.75000000
   C     94.40000000    31.08000000    74.29000000
   O     95.34000000    30.92000000    73.52000000
   C     95.88000000    29.93000000    75.94000000
   C     95.86000000    29.22000000    77.29000000
   C     94.91000000    28.05000000    77.49000000
   N     94.67000000    27.59000000    78.72000000
   O     94.40000000    27.59000000    76.47000000
   H     93.56000000    31.63000000    77.26000000
   H     93.72000000    30.02000000    76.00000000
   H     96.74000000    30.61000000    75.95000000
   H     96.08000000    29.09000000    75.28000000
   H     95.65000000    29.96000000    78.06000000
   H     96.88000000    28.85000000    77.45000000
   H     95.07000000    28.07000000    79.53000000
   H     94.13000000    26.76000000    78.88000000
   N     93.24000000    31.58000000    73.84000000
   C     93.01000000    31.84000000    72.43000000
   C     92.68000000    30.52000000    71.74000000
   O     92.31000000    29.53000000    72.37000000
   C     91.97000000    32.95000000    72.30000000
   C     90.81000000    32.95000000    73.29000000
   C     92.80000000    34.23000000    72.32000000
   H     92.59000000    31.97000000    74.50000000
   H     93.93000000    32.22000000    72.00000000
   H     91.56000000    32.87000000    71.30000000
   H     90.50000000    31.92000000    73.47000000
   H     91.10000000    33.42000000    74.22000000
   H     90.02000000    33.54000000    72.83000000
   H     93.46000000    34.16000000    71.45000000
   H     92.11000000    35.06000000    72.13000000
   H     93.40000000    34.36000000    73.21000000
   N     92.76000000    30.58000000    70.41000000
   C     92.20000000    29.61000000    69.50000000
   C     91.57000000    30.26000000    68.27000000
   O     92.20000000    31.17000000    67.72000000
   C     93.36000000    28.68000000    69.18000000
   C     93.46000000    28.14000000    67.76000000
   N     92.47000000    27.38000000    67.29000000
   O     94.38000000    28.39000000    66.98000000
   H     93.22000000    31.37000000    69.97000000
   H     91.48000000    29.02000000    70.06000000
   H     93.42000000    27.94000000    69.97000000
   H     94.34000000    29.15000000    69.30000000
   H     91.69000000    27.13000000    67.88000000
   H     92.50000000    26.97000000    66.37000000
   N     90.48000000    29.68000000    67.77000000
   C     89.77000000    30.13000000    66.59000000
   C     88.29000000    29.78000000    66.62000000
   O     87.69000000    29.25000000    65.68000000
   C     90.45000000    29.63000000    65.32000000
   C     89.97000000    30.29000000    64.05000000
   C     90.47000000    31.54000000    63.68000000
   C     89.08000000    29.69000000    63.15000000
   C     90.12000000    32.13000000    62.46000000
   C     88.73000000    30.23000000    61.91000000
   C     89.29000000    31.47000000    61.53000000
   O     88.97000000    32.08000000    60.35000000
   H     90.10000000    28.88000000    68.26000000
   H     89.75000000    31.22000000    66.62000000
   H     90.35000000    28.55000000    65.24000000
   H     91.53000000    29.78000000    65.38000000
   H     91.15000000    32.06000000    64.35000000
   H     88.73000000    28.68000000    63.31000000
   H     90.52000000    33.08000000    62.16000000
   H     88.04000000    29.65000000    61.33000000
   H     88.45000000    31.51000000    59.77000000
   N     87.64000000    30.04000000    67.76000000
   C     86.44000000    29.31000000    68.11000000
   C     85.13000000    29.92000000    67.63000000
   O     84.26000000    29.15000000    67.25000000
   C     86.41000000    28.94000000    69.59000000
   C     85.43000000    27.85000000    70.00000000
   C     85.36000000    27.95000000    71.52000000
   O     85.27000000    26.91000000    72.20000000
   O     85.32000000    29.06000000    72.09000000
   H     88.16000000    30.53000000    68.49000000
   H     86.48000000    28.32000000    67.65000000
   H     86.24000000    29.82000000    70.22000000
   H     87.37000000    28.58000000    69.94000000
   H     85.82000000    26.91000000    69.60000000
   H     84.46000000    28.13000000    69.61000000
   N     84.82000000    31.21000000    67.73000000
   C     85.58000000    32.20000000    68.46000000
   C     86.70000000    32.90000000    67.69000000
   O     86.73000000    32.76000000    66.47000000
   C     84.68000000    33.34000000    68.93000000
   C     83.50000000    32.91000000    69.81000000
   C     83.83000000    32.06000000    71.03000000
   O     83.22000000    31.00000000    71.29000000
   O     84.83000000    32.30000000    71.74000000
   H     83.92000000    31.51000000    67.37000000
   H     86.09000000    31.82000000    69.34000000
   H     84.17000000    33.74000000    68.06000000
   H     85.11000000    34.22000000    69.40000000
   H     82.74000000    32.41000000    69.20000000
   H     82.93000000    33.79000000    70.10000000
   N     87.57000000    33.66000000    68.36000000
   C     88.54000000    34.59000000    67.83000000
   H     89.46300000    34.05800000    67.59700000
   H     88.14700000    35.04900000    66.92300000
   H     88.74400000    35.36400000    68.57000000
   H     87.63000000    33.50000000    69.35000000
  Ca     84.24000000    30.70000000    73.70000000
   O     84.88000000    28.68000000    75.40000000
   H     84.77000000    28.87000000    76.33000000
   H     85.19000000    27.77000000    75.37000000
   O     82.02000000    29.21000000    73.58000000
   H     81.35000000    28.83000000    74.14000000
   H     81.69000000    29.10000000    72.69000000
   O     82.67000000    30.68000000    76.16000000
   H     82.91000000    31.29000000    76.85000000
   H     81.94000000    31.10000000    75.70000000

Ca 1.00



