%chk=loop1.apoCaM-CA-Ng.Init293.run63.water5.chk
%nprocshared=20
%mem=10GB
%nosave
#b3lyp/svp scf=(tight,noincore,xqc) Test 
#IOP(5/87=12) Density=Current Pop=(MK,readradii) iop(6/33=2) iop(6/42=6)

loop1.apoCaM-CA-Ng.Init293.run63.water5 

   0  1 
   C     85.87000000    77.73000000    59.35000000
   C     87.36000000    77.91000000    59.58000000
   O     88.00000000    78.79000000    59.01000000
   H     85.36300000    78.68400000    59.49400000
   H     85.69900000    77.37800000    58.33300000
   H     85.47800000    77.00000000    60.05900000
   N     87.89000000    77.01000000    60.41000000
   C     89.30000000    76.94000000    60.75000000
   C     90.27000000    76.24000000    59.80000000
   O     91.48000000    76.18000000    60.02000000
   C     89.30000000    76.16000000    62.06000000
   C     88.59000000    74.82000000    61.97000000
   O     89.20000000    73.75000000    61.74000000
   O     87.36000000    74.78000000    62.17000000
   H     87.24000000    76.36000000    60.84000000
   H     89.74000000    77.92000000    60.91000000
   H     88.72000000    76.68000000    62.82000000
   H     90.29000000    76.00000000    62.49000000
   N     89.80000000    75.75000000    58.65000000
   C     90.54000000    75.12000000    57.57000000
   C     90.98000000    76.17000000    56.56000000
   O     90.19000000    77.01000000    56.13000000
   C     89.65000000    74.08000000    56.91000000
   C     89.19000000    72.98000000    57.87000000
   C     90.32000000    72.17000000    58.50000000
   C     89.63000000    71.02000000    59.23000000
   N     88.68000000    71.43000000    60.27000000
   H     88.85000000    76.03000000    58.50000000
   H     91.45000000    74.68000000    57.98000000
   H     90.11000000    73.76000000    55.98000000
   H     88.77000000    74.57000000    56.50000000
   H     88.42000000    72.33000000    57.44000000
   H     88.60000000    73.48000000    58.64000000
   H     90.93000000    72.83000000    59.12000000
   H     90.90000000    71.75000000    57.68000000
   H     90.43000000    70.45000000    59.69000000
   H     89.10000000    70.49000000    58.44000000
   H     89.09000000    71.97000000    61.02000000
   H     87.83000000    71.89000000    59.98000000
   H     88.33000000    70.57000000    60.68000000
   N     92.27000000    76.27000000    56.21000000
   C     93.43000000    75.55000000    56.70000000
   C     94.66000000    76.42000000    56.50000000
   O     95.63000000    76.07000000    55.83000000
   C     93.59000000    74.13000000    56.17000000
   C     94.81000000    73.42000000    56.74000000
   O     95.53000000    72.84000000    55.90000000
   O     95.18000000    73.51000000    57.93000000
   H     92.43000000    77.08000000    55.63000000
   H     93.39000000    75.52000000    57.79000000
   H     93.52000000    74.06000000    55.08000000
   H     92.69000000    73.63000000    56.53000000
   N     94.64000000    77.66000000    56.99000000
   C     93.72000000    78.36000000    57.86000000
   C     94.17000000    79.78000000    58.17000000
   O     95.38000000    80.02000000    58.13000000
   H     95.39000000    78.25000000    56.65000000
   H     93.66000000    77.80000000    58.80000000
   H     92.74000000    78.50000000    57.41000000
   N     93.27000000    80.75000000    58.30000000
   C     91.84000000    80.55000000    58.44000000
   C     91.17000000    81.32000000    59.58000000
   O     91.67000000    82.35000000    60.01000000
   C     91.08000000    80.98000000    57.19000000
   C     91.72000000    80.65000000    55.85000000
   O     91.44000000    79.58000000    55.28000000
   O     92.53000000    81.49000000    55.39000000
   H     93.65000000    81.68000000    58.20000000
   H     91.48000000    79.53000000    58.57000000
   H     91.09000000    82.07000000    57.21000000
   H     90.08000000    80.55000000    57.18000000
   N     89.97000000    80.90000000    59.98000000
   C     89.10000000    81.73000000    60.79000000
   C     88.47000000    82.95000000    60.15000000
   O     88.30000000    83.94000000    60.87000000
   H     89.54000000    80.04000000    59.65000000
   H     89.66000000    82.00000000    61.69000000
   H     88.26000000    81.11000000    61.11000000
   N     88.24000000    82.80000000    58.85000000
   C     87.54000000    83.77000000    58.03000000
   C     86.53000000    82.95000000    57.23000000
   O     86.78000000    81.80000000    56.88000000
   C     88.45000000    84.60000000    57.14000000
   C     87.78000000    85.62000000    56.22000000
   O     89.30000000    83.76000000    56.39000000
   H     88.32000000    81.89000000    58.40000000
   H     87.02000000    84.42000000    58.73000000
   H     89.12000000    85.24000000    57.71000000
   H     90.11000000    84.23000000    56.17000000
   H     86.99000000    85.08000000    55.68000000
   H     87.37000000    86.48000000    56.75000000
   H     88.42000000    85.97000000    55.41000000
   N     85.30000000    83.44000000    57.01000000
   C     84.40000000    82.88000000    56.03000000
   C     83.89000000    83.95000000    55.08000000
   O     83.32000000    84.97000000    55.48000000
   C     83.38000000    81.90000000    56.59000000
   C     82.35000000    81.21000000    55.70000000
   C     82.57000000    82.75000000    57.56000000
   C     83.05000000    80.29000000    54.70000000
   H     84.93000000    84.23000000    57.52000000
   H     85.03000000    82.27000000    55.38000000
   H     83.97000000    81.14000000    57.12000000
   H     81.71000000    81.90000000    55.16000000
   H     81.76000000    80.59000000    56.38000000
   H     83.21000000    83.15000000    58.35000000
   H     81.97000000    83.52000000    57.06000000
   H     81.85000000    82.17000000    58.14000000
   H     82.32000000    79.67000000    54.18000000
   H     83.48000000    80.84000000    53.86000000
   H     83.73000000    79.53000000    55.09000000
   N     84.27000000    83.81000000    53.80000000
   C     83.96000000    84.79000000    52.78000000
   C     83.47000000    84.35000000    51.41000000
   O     82.78000000    85.09000000    50.71000000
   C     85.22000000    85.64000000    52.61000000
   C     84.98000000    86.96000000    51.89000000
   O     86.22000000    85.04000000    51.82000000
   H     84.88000000    83.03000000    53.64000000
   H     83.21000000    85.44000000    53.22000000
   H     85.63000000    85.85000000    53.60000000
   H     86.87000000    85.68000000    51.55000000
   H     84.18000000    87.53000000    52.37000000
   H     85.89000000    87.57000000    51.84000000
   H     84.65000000    86.95000000    50.86000000
   N     83.73000000    83.06000000    51.18000000
   C     83.39000000    82.27000000    50.02000000
   C     84.15000000    82.80000000    48.81000000
   O     84.36000000    83.99000000    48.60000000
   C     81.88000000    82.23000000    49.83000000
   C     80.97000000    81.96000000    51.03000000
   O     81.56000000    81.12000000    49.04000000
   H     84.14000000    82.55000000    51.95000000
   H     83.72000000    81.26000000    50.26000000
   H     81.54000000    83.11000000    49.28000000
   H     80.64000000    80.82000000    49.10000000
   H     80.87000000    82.67000000    51.84000000
   H     79.96000000    81.65000000    50.73000000
   H     81.29000000    81.07000000    51.57000000
   N     84.60000000    81.85000000    47.98000000
   C     85.30000000    82.07000000    46.73000000
   C     86.57000000    81.27000000    46.46000000
   O     87.48000000    81.80000000    45.82000000
   C     84.26000000    81.89000000    45.63000000
   C     83.16000000    82.94000000    45.56000000
   C     83.67000000    84.34000000    45.22000000
   C     82.84000000    85.26000000    44.34000000
   N     81.68000000    85.73000000    45.12000000
   H     84.30000000    80.92000000    48.22000000
   H     85.63000000    83.10000000    46.58000000
   H     83.77000000    80.92000000    45.52000000
   H     84.70000000    82.05000000    44.64000000
   H     82.44000000    82.95000000    46.38000000
   H     82.61000000    82.61000000    44.68000000
   H     84.61000000    84.25000000    44.67000000
   H     83.96000000    84.88000000    46.12000000
   H     82.34000000    84.66000000    43.58000000
   H     83.30000000    86.08000000    43.79000000
   H     81.19000000    86.48000000    44.64000000
   H     80.94000000    85.05000000    45.20000000
   H     81.99000000    86.05000000    46.03000000
   N     86.87000000    80.11000000    47.04000000
   C     86.28000000    79.23000000    48.02000000
   C     84.82000000    78.90000000    47.78000000
   O     83.96000000    79.17000000    48.61000000
   C     86.76000000    79.54000000    49.44000000
   C     86.51000000    78.46000000    50.48000000
   C     87.54000000    78.48000000    51.60000000
   O     87.52000000    79.36000000    52.49000000
   O     88.37000000    77.57000000    51.80000000
   H     87.74000000    79.69000000    46.71000000
   H     86.80000000    78.29000000    47.82000000
   H     86.15000000    80.39000000    49.76000000
   H     87.83000000    79.71000000    49.38000000
   H     86.54000000    77.47000000    50.02000000
   H     85.52000000    78.59000000    50.93000000
   N     84.54000000    78.30000000    46.61000000
   C     83.18000000    77.92000000    46.26000000
   H     82.54300000    78.80400000    46.26800000
   H     83.17100000    77.47600000    45.26500000
   H     82.80600000    77.19700000    46.98500000
   H     85.25000000    78.24000000    45.91000000
  Ca     89.26000000    78.69000000    54.28000000
   O     87.82000000    76.47000000    54.69000000
   H     87.70000000    75.62000000    54.28000000
   H     87.49000000    76.35000000    55.59000000
   O     88.64000000    81.26000000    54.74000000
   H     87.96000000    81.73000000    54.27000000
   H     88.96000000    81.88000000    55.39000000
   O     90.55000000    80.22000000    52.46000000
   H     91.05000000    79.76000000    51.80000000
   H     90.69000000    81.15000000    52.26000000
   O     87.91000000    79.32000000    56.53000000
   H     87.45000000    80.15000000    56.48000000
   H     87.93000000    79.10000000    57.46000000
   O     90.99000000    76.94000000    53.07000000
   H     90.55000000    76.45000000    52.38000000
   H     91.84000000    76.52000000    53.15000000

Ca 1.00



