%chk=loop4.holoCaM-CaMKII.run33.water2.chk
%nprocshared=20
%mem=10GB
%nosave
#b3lyp/svp scf=(tight,noincore,xqc) Test 
#IOP(5/87=12) Density=Current Pop=(MK,readradii) iop(6/33=2) iop(6/42=6)

loop4.holoCaM-CaMKII.run33.water2 

   -3  1 
   C     92.05000000    52.68000000    37.83000000
   C     92.56000000    52.43000000    39.24000000
   O     91.90000000    52.85000000    40.19000000
   H     91.17500000    53.32800000    37.87000000
   H     92.83100000    53.16100000    37.24100000
   H     91.77800000    51.73100000    37.36800000
   N     93.75000000    51.83000000    39.36000000
   C     94.33000000    51.42000000    40.62000000
   C     94.75000000    52.60000000    41.48000000
   O     95.53000000    53.47000000    41.08000000
   C     95.45000000    50.44000000    40.28000000
   C     95.95000000    49.77000000    41.55000000
   O     95.23000000    49.66000000    42.56000000
   O     97.15000000    49.42000000    41.47000000
   H     94.25000000    51.60000000    38.51000000
   H     93.56000000    50.89000000    41.18000000
   H     96.35000000    50.85000000    39.82000000
   H     95.10000000    49.53000000    39.78000000
   N     94.40000000    52.62000000    42.77000000
   C     94.78000000    53.70000000    43.65000000
   C     95.86000000    53.25000000    44.62000000
   O     96.83000000    53.95000000    44.89000000
   C     93.54000000    54.30000000    44.31000000
   C     92.71000000    55.04000000    43.26000000
   C     93.73000000    55.19000000    45.53000000
   C     91.22000000    54.87000000    43.54000000
   H     93.97000000    51.81000000    43.18000000
   H     95.23000000    54.51000000    43.08000000
   H     92.89000000    53.52000000    44.71000000
   H     92.89000000    54.66000000    42.26000000
   H     93.04000000    56.08000000    43.15000000
   H     94.59000000    55.86000000    45.48000000
   H     92.80000000    55.70000000    45.77000000
   H     93.98000000    54.63000000    46.43000000
   H     91.10000000    54.65000000    44.60000000
   H     90.78000000    55.84000000    43.29000000
   H     90.74000000    54.14000000    42.90000000
   N     95.80000000    51.99000000    45.06000000
   C     96.57000000    51.55000000    46.20000000
   C     97.67000000    50.58000000    45.81000000
   O     98.21000000    49.87000000    46.65000000
   C     95.70000000    51.08000000    47.37000000
   C     94.71000000    49.98000000    47.02000000
   O     94.70000000    49.51000000    45.86000000
   O     93.99000000    49.39000000    47.86000000
   H     95.16000000    51.36000000    44.59000000
   H     97.10000000    52.42000000    46.58000000
   H     95.11000000    51.93000000    47.71000000
   H     96.30000000    50.81000000    48.24000000
   N     98.20000000    50.75000000    44.60000000
   C     99.47000000    50.15000000    44.23000000
   C     99.55000000    48.63000000    44.25000000
   O    100.60000000    48.07000000    44.55000000
   H     97.77000000    51.48000000    44.05000000
   H    100.17000000    50.59000000    44.93000000
   H     99.60000000    50.47000000    43.19000000
   N     98.48000000    47.88000000    43.98000000
   C     98.42000000    46.43000000    43.92000000
   C     98.24000000    45.91000000    42.50000000
   O     98.24000000    44.71000000    42.27000000
   C     97.36000000    45.85000000    44.85000000
   C     95.97000000    46.39000000    44.55000000
   O     95.17000000    46.69000000    45.46000000
   O     95.61000000    46.43000000    43.36000000
   H     97.64000000    48.31000000    43.63000000
   H     99.37000000    45.99000000    44.24000000
   H     97.60000000    45.98000000    45.91000000
   H     97.33000000    44.77000000    44.69000000
   N     98.07000000    46.76000000    41.48000000
   C     97.84000000    46.28000000    40.14000000
   C     96.56000000    45.54000000    39.78000000
   O     96.43000000    44.87000000    38.76000000
   H     98.31000000    47.72000000    41.68000000
   H     98.63000000    45.53000000    40.06000000
   H     98.02000000    47.10000000    39.44000000
   N     95.51000000    45.71000000    40.60000000
   C     94.16000000    45.28000000    40.29000000
   C     93.10000000    46.31000000    40.66000000
   O     93.31000000    47.29000000    41.38000000
   C     93.85000000    43.95000000    40.96000000
   C     94.74000000    42.86000000    40.36000000
   C     94.30000000    41.47000000    40.79000000
   N     94.85000000    41.00000000    41.90000000
   O     93.55000000    40.71000000    40.18000000
   H     95.71000000    46.19000000    41.47000000
   H     94.04000000    45.00000000    39.25000000
   H     92.84000000    43.59000000    40.76000000
   H     93.94000000    44.04000000    42.04000000
   H     95.81000000    43.09000000    40.46000000
   H     94.52000000    43.01000000    39.31000000
   H     95.53000000    41.59000000    42.37000000
   H     94.69000000    40.05000000    42.21000000
   N     91.85000000    46.10000000    40.24000000
   C     90.79000000    47.08000000    40.19000000
   C     89.48000000    46.59000000    40.80000000
   O     88.77000000    45.82000000    40.16000000
   C     90.50000000    47.49000000    38.74000000
   C     89.31000000    48.42000000    38.57000000
   C     91.73000000    48.16000000    38.13000000
   H     91.74000000    45.27000000    39.68000000
   H     91.06000000    47.96000000    40.77000000
   H     90.27000000    46.64000000    38.10000000
   H     89.35000000    48.71000000    37.52000000
   H     88.36000000    47.94000000    38.79000000
   H     89.42000000    49.30000000    39.21000000
   H     92.61000000    47.57000000    38.38000000
   H     91.60000000    48.21000000    37.05000000
   H     91.93000000    49.16000000    38.51000000
   N     89.19000000    46.99000000    42.03000000
   C     87.92000000    46.83000000    42.71000000
   C     86.72000000    47.53000000    42.09000000
   O     86.89000000    48.51000000    41.36000000
   C     88.17000000    47.10000000    44.19000000
   C     86.89000000    46.93000000    44.99000000
   N     86.36000000    45.71000000    45.16000000
   O     86.27000000    47.90000000    45.41000000
   H     89.91000000    47.52000000    42.51000000
   H     87.69000000    45.77000000    42.69000000
   H     88.43000000    48.15000000    44.25000000
   H     89.02000000    46.55000000    44.60000000
   H     86.68000000    44.95000000    44.58000000
   H     85.61000000    45.59000000    45.83000000
   N     85.50000000    47.11000000    42.45000000
   C     84.30000000    47.81000000    42.05000000
   C     84.38000000    49.30000000    42.36000000
   O     84.01000000    50.10000000    41.51000000
   C     82.99000000    47.20000000    42.53000000
   C     81.67000000    47.76000000    42.07000000
   C     81.33000000    47.53000000    40.72000000
   C     80.87000000    48.57000000    42.88000000
   C     80.09000000    48.01000000    40.29000000
   C     79.66000000    49.11000000    42.43000000
   C     79.27000000    48.80000000    41.11000000
   O     78.10000000    49.25000000    40.58000000
   H     85.50000000    46.24000000    42.96000000
   H     84.26000000    47.76000000    40.96000000
   H     82.88000000    47.12000000    43.61000000
   H     82.89000000    46.17000000    42.17000000
   H     81.97000000    46.89000000    40.14000000
   H     81.20000000    48.72000000    43.90000000
   H     79.68000000    47.75000000    39.32000000
   H     79.03000000    49.76000000    43.03000000
   H     77.57000000    49.72000000    41.24000000
   N     84.80000000    49.71000000    43.56000000
   C     84.95000000    51.11000000    43.90000000
   C     86.01000000    51.86000000    43.11000000
   O     86.01000000    53.08000000    42.95000000
   C     85.18000000    51.09000000    45.41000000
   C     85.58000000    52.43000000    46.03000000
   C     85.44000000    52.29000000    47.54000000
   O     86.42000000    51.94000000    48.24000000
   O     84.32000000    52.54000000    48.02000000
   H     84.91000000    48.99000000    44.26000000
   H     83.97000000    51.59000000    43.88000000
   H     86.08000000    50.50000000    45.58000000
   H     84.31000000    50.71000000    45.94000000
   H     84.90000000    53.22000000    45.73000000
   H     86.64000000    52.55000000    45.79000000
   N     87.03000000    51.15000000    42.64000000
   C     88.12000000    51.66000000    41.83000000
   C     87.67000000    51.81000000    40.38000000
   O     88.13000000    52.78000000    39.77000000
   C     89.36000000    50.77000000    41.88000000
   C     89.95000000    50.92000000    43.28000000
   C     91.22000000    50.10000000    43.38000000
   O     92.26000000    50.66000000    43.78000000
   O     91.24000000    48.92000000    42.94000000
   H     87.07000000    50.16000000    42.79000000
   H     88.42000000    52.65000000    42.16000000
   H     90.08000000    51.10000000    41.13000000
   H     89.09000000    49.74000000    41.65000000
   H     89.22000000    50.45000000    43.94000000
   H     90.18000000    51.94000000    43.59000000
   N     86.83000000    50.95000000    39.80000000
   C     86.21000000    51.12000000    38.50000000
   H     85.31600000    51.73500000    38.60200000
   H     86.91100000    51.60900000    37.82300000
   H     85.93500000    50.14500000    38.09700000
   H     86.46000000    50.20000000    40.36000000
  Ca     93.59000000    48.26000000    43.97000000
   O     92.29000000    48.09000000    46.26000000
   H     92.88000000    48.62000000    46.79000000
   H     91.68000000    47.71000000    46.90000000
   O     92.98000000    45.73000000    43.87000000
   H     93.78000000    45.60000000    43.37000000
   H     92.98000000    45.01000000    44.51000000

Ca 1.00



