%chk=loop3.apoCaM-CA-Ng.Init293.run86.water5.chk
%nprocshared=20
%mem=10GB
%nosave
#b3lyp/svp scf=(tight,noincore,xqc) Test 
#IOP(5/87=12) Density=Current Pop=(MK,readradii) iop(6/33=2) iop(6/42=6)

loop3.apoCaM-CA-Ng.Init293.run86.water5 

   0  1 
   C     61.08000000    78.85000000    15.48000000
   C     61.86000000    77.75000000    14.77000000
   O     62.62000000    77.98000000    13.84000000
   H     60.10200000    78.46900000    15.77500000
   H     61.62700000    79.17000000    16.36700000
   H     60.95100000    79.69700000    14.80700000
   N     61.55000000    76.51000000    15.14000000
   C     62.11000000    75.26000000    14.65000000
   C     62.52000000    74.38000000    15.82000000
   O     62.18000000    74.56000000    16.98000000
   C     60.99000000    74.63000000    13.82000000
   C     61.42000000    73.73000000    12.67000000
   O     62.60000000    73.35000000    12.57000000
   O     60.52000000    73.27000000    11.93000000
   H     60.90000000    76.43000000    15.91000000
   H     63.02000000    75.47000000    14.10000000
   H     60.28000000    75.37000000    13.46000000
   H     60.47000000    73.92000000    14.47000000
   N     63.27000000    73.32000000    15.49000000
   C     63.60000000    72.22000000    16.37000000
   C     62.40000000    71.32000000    16.68000000
   O     61.30000000    71.72000000    16.32000000
   C     64.32000000    72.75000000    17.61000000
   C     65.33000000    71.75000000    18.17000000
   C     65.73000000    72.02000000    19.62000000
   C     64.59000000    71.96000000    20.63000000
   N     64.20000000    70.57000000    20.92000000
   H     63.43000000    73.20000000    14.50000000
   H     64.31000000    71.59000000    15.85000000
   H     63.61000000    73.06000000    18.37000000
   H     64.88000000    73.60000000    17.21000000
   H     66.24000000    71.82000000    17.59000000
   H     64.90000000    70.75000000    18.08000000
   H     66.28000000    72.96000000    19.60000000
   H     66.57000000    71.37000000    19.89000000
   H     63.73000000    72.56000000    20.33000000
   H     64.92000000    72.44000000    21.55000000
   H     65.01000000    70.09000000    21.28000000
   H     63.49000000    70.49000000    21.63000000
   H     63.93000000    70.04000000    20.10000000
   N     62.55000000    70.14000000    17.29000000
   C     61.55000000    69.48000000    18.10000000
   C     61.21000000    70.34000000    19.31000000
   O     61.87000000    71.31000000    19.67000000
   C     61.81000000    68.03000000    18.51000000
   C     63.27000000    67.76000000    18.83000000
   O     63.69000000    66.64000000    19.18000000
   O     64.13000000    68.66000000    18.98000000
   H     63.47000000    69.76000000    17.45000000
   H     60.62000000    69.54000000    17.53000000
   H     61.57000000    67.38000000    17.68000000
   H     61.20000000    67.57000000    19.29000000
   N     60.04000000    70.08000000    19.90000000
   C     59.41000000    70.92000000    20.89000000
   C     58.02000000    70.54000000    21.37000000
   O     57.36000000    71.44000000    21.89000000
   H     59.52000000    69.29000000    19.53000000
   H     59.33000000    71.95000000    20.53000000
   H     60.06000000    71.09000000    21.75000000
   N     57.56000000    69.29000000    21.34000000
   C     56.29000000    68.80000000    21.84000000
   C     56.61000000    67.81000000    22.95000000
   O     57.72000000    67.29000000    23.03000000
   C     55.42000000    68.25000000    20.71000000
   C     54.97000000    69.21000000    19.63000000
   N     55.49000000    69.13000000    18.40000000
   O     54.11000000    70.07000000    19.82000000
   H     58.20000000    68.60000000    20.98000000
   H     55.67000000    69.61000000    22.22000000
   H     54.57000000    67.72000000    21.14000000
   H     55.93000000    67.43000000    20.20000000
   H     56.20000000    68.42000000    18.29000000
   H     55.15000000    69.63000000    17.59000000
   N     55.65000000    67.50000000    23.82000000
   C     55.91000000    66.70000000    25.00000000
   C     56.25000000    67.48000000    26.26000000
   O     56.18000000    68.71000000    26.20000000
   H     54.70000000    67.85000000    23.75000000
   H     56.68000000    65.94000000    24.85000000
   H     55.04000000    66.06000000    25.20000000
   N     56.68000000    66.80000000    27.32000000
   C     57.15000000    67.32000000    28.59000000
   C     58.31000000    68.29000000    28.47000000
   O     58.51000000    69.08000000    29.39000000
   C     55.92000000    67.84000000    29.34000000
   C     54.86000000    66.83000000    29.72000000
   C     53.53000000    67.09000000    29.37000000
   C     55.28000000    65.73000000    30.48000000
   C     52.56000000    66.12000000    29.65000000
   C     54.27000000    64.85000000    30.87000000
   C     52.93000000    65.05000000    30.50000000
   O     51.95000000    64.15000000    30.79000000
   H     56.73000000    65.79000000    27.26000000
   H     57.53000000    66.53000000    29.24000000
   H     55.40000000    68.58000000    28.75000000
   H     56.22000000    68.34000000    30.27000000
   H     53.27000000    67.92000000    28.75000000
   H     56.31000000    65.58000000    30.78000000
   H     51.54000000    66.26000000    29.33000000
   H     54.55000000    63.91000000    31.32000000
   H     52.31000000    63.34000000    31.17000000
   N     59.17000000    68.19000000    27.45000000
   C     60.36000000    68.96000000    27.16000000
   C     61.50000000    68.52000000    28.06000000
   O     62.56000000    68.16000000    27.55000000
   C     60.28000000    70.48000000    27.23000000
   C     59.14000000    71.15000000    26.46000000
   C     61.59000000    71.16000000    26.82000000
   C     59.10000000    70.91000000    24.95000000
   H     58.85000000    67.49000000    26.80000000
   H     60.61000000    68.71000000    26.13000000
   H     60.12000000    70.63000000    28.30000000
   H     59.07000000    72.21000000    26.67000000
   H     58.25000000    70.69000000    26.89000000
   H     61.86000000    70.96000000    25.78000000
   H     61.44000000    72.24000000    26.80000000
   H     62.43000000    71.01000000    27.49000000
   H     58.31000000    71.53000000    24.51000000
   H     60.09000000    71.13000000    24.56000000
   H     58.78000000    69.88000000    24.78000000
   N     61.21000000    68.31000000    29.35000000
   C     62.13000000    67.85000000    30.37000000
   C     63.50000000    68.50000000    30.47000000
   O     64.41000000    67.71000000    30.69000000
   C     61.40000000    67.91000000    31.70000000
   O     60.98000000    69.18000000    32.14000000
   H     60.33000000    68.65000000    29.71000000
   H     62.36000000    66.80000000    30.16000000
   H     61.99000000    67.44000000    32.49000000
   H     60.47000000    67.33000000    31.68000000
   H     61.10000000    69.09000000    33.09000000
   N     63.56000000    69.83000000    30.32000000
   C     64.73000000    70.68000000    30.49000000
   C     65.86000000    70.68000000    29.47000000
   O     66.92000000    71.29000000    29.58000000
   C     65.36000000    70.65000000    31.88000000
   H     62.62000000    70.18000000    30.31000000
   H     64.35000000    71.70000000    30.38000000
   H     66.04000000    69.80000000    31.98000000
   H     65.86000000    71.58000000    32.14000000
   H     64.59000000    70.52000000    32.65000000
   N     65.64000000    69.94000000    28.39000000
   C     66.66000000    69.61000000    27.42000000
   C     66.66000000    70.66000000    26.31000000
   O     65.61000000    71.24000000    26.03000000
   C     66.40000000    68.24000000    26.80000000
   H     64.81000000    69.36000000    28.34000000
   H     67.69000000    69.55000000    27.78000000
   H     65.36000000    68.13000000    26.50000000
   H     67.01000000    68.07000000    25.92000000
   H     66.59000000    67.45000000    27.53000000
   N     67.81000000    70.75000000    25.65000000
   C     68.02000000    71.50000000    24.43000000
   C     67.69000000    72.98000000    24.39000000
   O     67.58000000    73.62000000    23.34000000
   C     67.42000000    70.73000000    23.25000000
   C     67.70000000    69.23000000    23.23000000
   C     67.22000000    68.63000000    21.91000000
   O     66.04000000    68.78000000    21.53000000
   O     67.96000000    67.87000000    21.25000000
   H     68.49000000    70.05000000    25.92000000
   H     69.09000000    71.39000000    24.30000000
   H     67.84000000    71.24000000    22.38000000
   H     66.35000000    70.91000000    23.21000000
   H     67.10000000    68.75000000    24.00000000
   H     68.78000000    69.15000000    23.34000000
   N     67.46000000    73.57000000    25.56000000
   C     67.05000000    74.96000000    25.72000000
   H     66.08300000    74.99800000    26.22100000
   H     67.79000000    75.49100000    26.31900000
   H     66.97000000    75.43100000    24.74000000
   H     67.50000000    72.96000000    26.36000000
  Ca     66.26000000    67.22000000    19.26000000
   O     65.79000000    67.33000000    16.62000000
   H     64.96000000    67.06000000    16.25000000
   H     66.30000000    67.65000000    15.87000000
   O     67.74000000    69.44000000    18.40000000
   H     68.01000000    69.02000000    17.58000000
   H     68.55000000    69.73000000    18.80000000
   O     66.24000000    65.60000000    21.34000000
   H     66.76000000    65.99000000    22.04000000
   H     66.08000000    64.70000000    21.62000000
   O     65.80000000    64.71000000    18.15000000
   H     66.22000000    63.87000000    18.31000000
   H     64.97000000    64.48000000    17.72000000
   O     68.78000000    65.86000000    18.64000000
   H     69.73000000    65.96000000    18.64000000
   H     68.57000000    65.60000000    17.74000000

Ca 1.00



