%chk=loop1.holoCaM.run79.water2.chk
%nprocshared=20
%mem=10GB
%nosave
#b3lyp/svp scf=(tight,noincore,xqc) Test 
#IOP(5/87=12) Density=Current Pop=(MK,readradii) iop(6/33=2) iop(6/42=6)

loop1.holoCaM.run79.water2 

   0  1 
   C     23.39000000    60.96000000    37.64000000
   C     23.12000000    59.49000000    37.93000000
   O     22.74000000    58.80000000    36.99000000
   H     24.35900000    61.06100000    37.15100000
   H     22.61100000    61.35100000    36.98600000
   H     23.39600000    61.52000000    38.57500000
   N     23.09000000    58.99000000    39.17000000
   C     22.37000000    57.78000000    39.51000000
   C     20.86000000    57.90000000    39.40000000
   O     20.40000000    58.88000000    39.99000000
   C     22.77000000    57.55000000    40.96000000
   C     22.35000000    56.21000000    41.56000000
   O     22.59000000    56.09000000    42.78000000
   O     21.77000000    55.30000000    40.94000000
   H     23.36000000    59.61000000    39.92000000
   H     22.78000000    57.06000000    38.79000000
   H     22.28000000    58.35000000    41.52000000
   H     23.84000000    57.72000000    40.98000000
   N     20.15000000    57.07000000    38.63000000
   C     18.76000000    57.34000000    38.31000000
   C     17.84000000    56.30000000    38.92000000
   O     16.64000000    56.25000000    38.64000000
   C     18.62000000    57.47000000    36.79000000
   C     19.54000000    58.49000000    36.12000000
   C     19.56000000    59.91000000    36.68000000
   C     18.13000000    60.41000000    36.47000000
   N     17.99000000    61.75000000    37.05000000
   H     20.58000000    56.22000000    38.28000000
   H     18.42000000    58.25000000    38.79000000
   H     17.58000000    57.72000000    36.62000000
   H     18.71000000    56.52000000    36.26000000
   H     19.30000000    58.51000000    35.06000000
   H     20.55000000    58.09000000    36.14000000
   H     20.28000000    60.49000000    36.11000000
   H     19.76000000    59.87000000    37.75000000
   H     17.48000000    59.67000000    36.94000000
   H     17.96000000    60.43000000    35.40000000
   H     18.19000000    61.68000000    38.04000000
   H     18.61000000    62.44000000    36.65000000
   H     17.04000000    62.10000000    36.94000000
   N     18.36000000    55.34000000    39.70000000
   C     17.60000000    54.37000000    40.46000000
   C     17.86000000    54.46000000    41.95000000
   O     17.18000000    53.87000000    42.79000000
   C     17.59000000    52.94000000    39.92000000
   C     18.93000000    52.31000000    39.57000000
   O     18.98000000    51.15000000    39.12000000
   O     20.06000000    52.82000000    39.79000000
   H     19.36000000    55.35000000    39.78000000
   H     16.54000000    54.58000000    40.39000000
   H     17.02000000    53.07000000    39.01000000
   H     17.07000000    52.28000000    40.61000000
   N     18.89000000    55.17000000    42.41000000
   C     19.28000000    55.27000000    43.80000000
   C     19.91000000    54.02000000    44.41000000
   O     19.58000000    53.66000000    45.53000000
   H     19.36000000    55.72000000    41.70000000
   H     18.38000000    55.53000000    44.37000000
   H     20.06000000    56.01000000    43.97000000
   N     20.66000000    53.21000000    43.65000000
   C     21.42000000    52.12000000    44.22000000
   C     22.79000000    52.60000000    44.68000000
   O     23.44000000    51.79000000    45.34000000
   C     21.48000000    51.03000000    43.16000000
   C     22.24000000    51.44000000    41.90000000
   O     22.29000000    50.76000000    40.85000000
   O     22.94000000    52.47000000    41.82000000
   H     20.64000000    53.37000000    42.66000000
   H     20.87000000    51.75000000    45.09000000
   H     20.46000000    50.75000000    42.90000000
   H     21.85000000    50.07000000    43.53000000
   N     23.20000000    53.84000000    44.39000000
   C     24.45000000    54.46000000    44.77000000
   C     25.60000000    54.05000000    43.85000000
   O     26.74000000    54.13000000    44.29000000
   H     22.64000000    54.35000000    43.73000000
   H     24.67000000    54.12000000    45.78000000
   H     24.42000000    55.54000000    44.69000000
   N     25.32000000    53.78000000    42.57000000
   C     26.33000000    53.57000000    41.55000000
   C     25.93000000    54.27000000    40.26000000
   O     24.78000000    54.67000000    40.13000000
   C     26.63000000    52.08000000    41.41000000
   C     27.26000000    51.44000000    42.64000000
   O     25.56000000    51.27000000    40.93000000
   H     24.36000000    53.94000000    42.30000000
   H     27.30000000    53.98000000    41.81000000
   H     27.42000000    52.15000000    40.66000000
   H     24.76000000    51.48000000    41.41000000
   H     28.02000000    52.07000000    43.11000000
   H     26.45000000    51.24000000    43.34000000
   H     27.56000000    50.43000000    42.35000000
   N     26.88000000    54.32000000    39.31000000
   C     26.68000000    54.88000000    37.99000000
   C     27.04000000    53.74000000    37.05000000
   O     28.11000000    53.16000000    37.18000000
   C     27.40000000    56.21000000    37.79000000
   C     26.76000000    57.32000000    38.63000000
   C     27.44000000    56.68000000    36.34000000
   C     27.34000000    58.73000000    38.56000000
   H     27.82000000    54.18000000    39.65000000
   H     25.60000000    54.98000000    37.97000000
   H     28.44000000    56.11000000    38.12000000
   H     26.85000000    56.99000000    39.66000000
   H     25.70000000    57.42000000    38.39000000
   H     26.58000000    57.17000000    35.89000000
   H     28.29000000    57.33000000    36.16000000
   H     27.75000000    55.79000000    35.78000000
   H     28.41000000    58.77000000    38.75000000
   H     27.23000000    58.93000000    37.49000000
   H     26.73000000    59.27000000    39.28000000
   N     26.10000000    53.55000000    36.12000000
   C     26.19000000    52.55000000    35.08000000
   C     26.37000000    53.18000000    33.71000000
   O     26.05000000    54.34000000    33.45000000
   C     24.98000000    51.63000000    35.21000000
   C     24.65000000    50.64000000    34.10000000
   O     25.07000000    50.74000000    36.29000000
   H     25.21000000    54.03000000    36.18000000
   H     27.15000000    52.08000000    35.29000000
   H     24.10000000    52.27000000    35.28000000
   H     25.11000000    49.83000000    35.99000000
   H     24.15000000    49.72000000    34.41000000
   H     24.00000000    51.15000000    33.38000000
   H     25.58000000    50.37000000    33.61000000
   N     26.71000000    52.39000000    32.68000000
   C     26.75000000    52.83000000    31.30000000
   C     25.42000000    53.38000000    30.82000000
   O     25.54000000    54.43000000    30.18000000
   C     27.06000000    51.58000000    30.48000000
   C     28.46000000    50.99000000    30.56000000
   O     26.17000000    50.53000000    30.76000000
   H     26.77000000    51.40000000    32.89000000
   H     27.53000000    53.57000000    31.14000000
   H     27.00000000    51.88000000    29.43000000
   H     26.65000000    49.79000000    30.38000000
   H     28.57000000    50.48000000    31.51000000
   H     28.74000000    50.34000000    29.73000000
   H     29.08000000    51.88000000    30.59000000
   N     24.31000000    52.73000000    31.16000000
   C     22.96000000    53.18000000    30.84000000
   C     22.57000000    54.51000000    31.47000000
   O     21.63000000    55.11000000    30.95000000
   C     21.92000000    52.10000000    31.14000000
   C     22.23000000    50.68000000    30.68000000
   C     21.25000000    49.63000000    31.20000000
   C     19.94000000    49.68000000    30.42000000
   N     19.13000000    48.53000000    30.83000000
   H     24.52000000    51.98000000    31.80000000
   H     22.97000000    53.47000000    29.79000000
   H     20.95000000    52.44000000    30.77000000
   H     21.84000000    52.10000000    32.23000000
   H     23.24000000    50.39000000    30.99000000
   H     22.16000000    50.69000000    29.60000000
   H     20.99000000    49.82000000    32.24000000
   H     21.72000000    48.67000000    31.02000000
   H     20.17000000    49.48000000    29.37000000
   H     19.33000000    50.57000000    30.58000000
   H     18.16000000    48.67000000    30.55000000
   H     19.44000000    47.65000000    30.45000000
   H     19.11000000    48.45000000    31.83000000
   N     23.23000000    55.04000000    32.50000000
   C     23.07000000    56.34000000    33.12000000
   C     24.11000000    57.37000000    32.71000000
   O     23.78000000    58.55000000    32.57000000
   C     23.25000000    56.17000000    34.62000000
   C     22.21000000    55.31000000    35.33000000
   C     22.64000000    54.84000000    36.71000000
   O     23.57000000    54.02000000    36.81000000
   O     21.92000000    55.08000000    37.71000000
   H     23.82000000    54.42000000    33.04000000
   H     22.06000000    56.70000000    32.90000000
   H     23.38000000    57.15000000    35.09000000
   H     24.15000000    55.57000000    34.75000000
   H     22.06000000    54.41000000    34.74000000
   H     21.27000000    55.85000000    35.51000000
   N     25.32000000    56.94000000    32.35000000
   C     26.44000000    57.62000000    31.74000000
   H     27.30600000    56.95800000    31.73200000
   H     26.18500000    57.89500000    30.71700000
   H     26.67500000    58.51800000    32.31100000
   H     25.43000000    55.94000000    32.48000000
  Ca     22.64000000    53.30000000    39.44000000
   O     24.53000000    51.91000000    38.58000000
   H     24.97000000    51.34000000    39.21000000
   H     24.68000000    51.49000000    37.73000000
   O     21.43000000    51.19000000    37.95000000
   H     20.72000000    50.90000000    38.52000000
   H     21.64000000    50.42000000    37.42000000

Ca 1.00



