%chk=loop3.apoCaM-CA-Ng.Init31.run34.water6.chk
%nprocshared=20
%mem=10GB
%nosave
#b3lyp/svp scf=(tight,noincore,xqc) Test 
#IOP(5/87=12) Density=Current Pop=(MK,readradii) iop(6/33=2) iop(6/42=6)

loop3.apoCaM-CA-Ng.Init31.run34.water6 

   0  1 
   C     92.67000000    48.91000000   102.15000000
   C     94.04000000    49.56000000   102.34000000
   O     94.83000000    49.77000000   101.42000000
   H     91.95800000    49.65900000   101.80500000
   H     92.74500000    48.11300000   101.41000000
   H     92.32900000    48.49500000   103.09900000
   N     94.41000000    50.03000000   103.53000000
   C     95.73000000    50.49000000   103.90000000
   C     96.46000000    49.49000000   104.79000000
   O     95.89000000    48.55000000   105.33000000
   C     95.77000000    51.89000000   104.51000000
   C     94.78000000    52.12000000   105.64000000
   O     94.56000000    53.31000000   105.96000000
   O     94.14000000    51.17000000   106.15000000
   H     93.77000000    49.82000000   104.29000000
   H     96.29000000    50.56000000   102.97000000
   H     95.47000000    52.53000000   103.68000000
   H     96.78000000    52.17000000   104.81000000
   N     97.79000000    49.59000000   104.92000000
   C     98.59000000    48.62000000   105.63000000
   C     98.59000000    47.27000000   104.93000000
   O     98.53000000    46.24000000   105.59000000
   C    100.00000000    49.16000000   105.85000000
   C    100.05000000    50.53000000   106.53000000
   C    100.02000000    51.76000000   105.62000000
   C    100.36000000    52.99000000   106.45000000
   N     99.86000000    54.27000000   105.94000000
   H     98.29000000    50.32000000   104.42000000
   H     98.16000000    48.39000000   106.60000000
   H    100.41000000    49.23000000   104.84000000
   H    100.57000000    48.45000000   106.44000000
   H    100.94000000    50.59000000   107.16000000
   H     99.21000000    50.74000000   107.19000000
   H     99.05000000    51.91000000   105.15000000
   H    100.85000000    51.72000000   104.91000000
   H    101.45000000    53.04000000   106.39000000
   H    100.13000000    52.86000000   107.51000000
   H    100.08000000    54.41000000   104.96000000
   H     98.85000000    54.26000000   105.94000000
   H    100.18000000    55.09000000   106.43000000
   N     98.77000000    47.21000000   103.60000000
   C     98.86000000    45.98000000   102.84000000
   C    100.08000000    45.95000000   101.93000000
   O    100.91000000    45.04000000   101.95000000
   C     97.61000000    45.81000000   101.98000000
   C     96.93000000    47.01000000   101.35000000
   O     95.82000000    46.87000000   100.79000000
   O     97.54000000    48.08000000   101.13000000
   H     98.76000000    48.10000000   103.14000000
   H     99.00000000    45.14000000   103.52000000
   H     96.80000000    45.41000000   102.59000000
   H     97.83000000    45.08000000   101.20000000
   N    100.16000000    46.95000000   101.05000000
   C    101.14000000    47.02000000    99.99000000
   C    102.59000000    47.37000000   100.33000000
   O    102.93000000    47.40000000   101.51000000
   H     99.54000000    47.75000000   101.16000000
   H    100.77000000    47.81000000    99.34000000
   H    101.02000000    46.08000000    99.44000000
   N    103.48000000    47.43000000    99.34000000
   C    103.17000000    47.62000000    97.94000000
   C    102.70000000    49.02000000    97.59000000
   O    102.91000000    49.99000000    98.31000000
   C    104.37000000    47.26000000    97.07000000
   C    104.63000000    45.77000000    97.23000000
   N    103.89000000    44.87000000    96.58000000
   O    105.46000000    45.31000000    98.01000000
   H    104.46000000    47.50000000    99.58000000
   H    102.39000000    46.87000000    97.78000000
   H    105.29000000    47.78000000    97.34000000
   H    104.35000000    47.37000000    95.99000000
   H    103.32000000    45.20000000    95.81000000
   H    104.27000000    43.93000000    96.52000000
   N    102.02000000    49.18000000    96.45000000
   C    101.62000000    48.16000000    95.50000000
   C    100.33000000    47.39000000    95.78000000
   O     99.83000000    47.32000000    96.90000000
   H    101.92000000    50.14000000    96.15000000
   H    102.38000000    47.39000000    95.42000000
   H    101.56000000    48.62000000    94.51000000
   N     99.69000000    47.05000000    94.66000000
   C     98.69000000    46.00000000    94.68000000
   C     99.24000000    44.67000000    95.18000000
   O    100.45000000    44.46000000    95.15000000
   C     98.16000000    45.95000000    93.26000000
   C     97.39000000    47.14000000    92.73000000
   C     96.16000000    47.42000000    93.32000000
   C     97.77000000    47.83000000    91.57000000
   C     95.32000000    48.42000000    92.82000000
   C     96.98000000    48.86000000    91.05000000
   C     95.77000000    49.17000000    91.71000000
   O     95.00000000    50.18000000    91.23000000
   H    100.08000000    47.33000000    93.78000000
   H     97.91000000    46.23000000    95.41000000
   H     97.59000000    45.03000000    93.12000000
   H     99.06000000    45.80000000    92.66000000
   H     95.89000000    46.70000000    94.08000000
   H     98.73000000    47.72000000    91.08000000
   H     94.36000000    48.57000000    93.29000000
   H     97.21000000    49.34000000    90.12000000
   H     95.47000000    50.80000000    90.67000000
   N     98.40000000    43.74000000    95.64000000
   C     98.77000000    42.37000000    95.91000000
   C     98.18000000    41.36000000    94.93000000
   O     98.61000000    40.21000000    94.86000000
   C     98.63000000    41.96000000    97.37000000
   C     99.50000000    42.80000000    98.31000000
   C     97.16000000    41.85000000    97.74000000
   C     99.66000000    42.28000000    99.73000000
   H     97.41000000    43.92000000    95.77000000
   H     99.85000000    42.33000000    95.74000000
   H     99.07000000    40.98000000    97.55000000
   H     99.12000000    43.81000000    98.48000000
   H    100.49000000    42.90000000    97.86000000
   H     96.98000000    41.73000000    98.81000000
   H     96.67000000    42.80000000    97.53000000
   H     96.75000000    41.01000000    97.17000000
   H    100.42000000    41.50000000    99.74000000
   H     99.99000000    43.06000000   100.41000000
   H     98.70000000    42.00000000   100.16000000
   N     97.13000000    41.83000000    94.25000000
   C     96.45000000    41.22000000    93.13000000
   C     95.30000000    40.28000000    93.49000000
   O     94.84000000    39.53000000    92.63000000
   C     96.04000000    42.30000000    92.14000000
   O     95.14000000    43.23000000    92.69000000
   H     96.85000000    42.78000000    94.46000000
   H     97.26000000    40.65000000    92.67000000
   H     95.53000000    41.79000000    91.33000000
   H     96.93000000    42.86000000    91.85000000
   H     95.45000000    43.56000000    93.54000000
   N     94.86000000    40.24000000    94.75000000
   C     93.92000000    39.26000000    95.24000000
   C     93.02000000    39.87000000    96.31000000
   O     93.53000000    40.51000000    97.23000000
   C     94.69000000    38.05000000    95.77000000
   H     95.21000000    40.88000000    95.44000000
   H     93.29000000    39.01000000    94.39000000
   H     95.41000000    37.69000000    95.04000000
   H     95.19000000    38.09000000    96.74000000
   H     93.98000000    37.24000000    95.95000000
   N     91.72000000    39.73000000    96.08000000
   C     90.62000000    40.20000000    96.90000000
   C     90.64000000    41.67000000    97.31000000
   O     90.21000000    41.97000000    98.42000000
   C     90.25000000    39.22000000    98.01000000
   H     91.45000000    39.14000000    95.30000000
   H     89.78000000    40.18000000    96.21000000
   H     89.25000000    39.40000000    98.38000000
   H     90.21000000    38.22000000    97.58000000
   H     91.00000000    39.24000000    98.80000000
   N     91.13000000    42.61000000    96.49000000
   C     91.27000000    44.01000000    96.80000000
   C     90.45000000    44.86000000    95.84000000
   O     90.15000000    46.02000000    96.10000000
   C     92.73000000    44.45000000    96.86000000
   C     93.52000000    44.46000000    95.56000000
   C     95.00000000    44.66000000    95.85000000
   O     95.42000000    45.36000000    96.80000000
   O     95.77000000    44.09000000    95.05000000
   H     91.48000000    42.36000000    95.58000000
   H     90.81000000    44.21000000    97.77000000
   H     93.28000000    43.92000000    97.64000000
   H     92.55000000    45.48000000    97.17000000
   H     93.20000000    45.29000000    94.93000000
   H     93.31000000    43.52000000    95.04000000
   N     89.99000000    44.31000000    94.71000000
   C     89.02000000    44.89000000    93.79000000
   H     88.15000000    45.23400000    94.35000000
   H     89.47300000    45.73300000    93.26800000
   H     88.71000000    44.13700000    93.06500000
   H     90.33000000    43.39000000    94.48000000
  Ca     96.12000000    48.98000000    99.14000000
   O     97.48000000    47.00000000    98.11000000
   H     98.38000000    46.88000000    97.81000000
   H     96.95000000    46.51000000    97.48000000
   O     96.17000000    49.11000000    96.41000000
   H     96.99000000    49.25000000    95.93000000
   H     95.51000000    48.99000000    95.72000000
   O     94.25000000    47.47000000    97.85000000
   H     93.39000000    47.67000000    97.48000000
   H     94.53000000    46.69000000    97.37000000
   O     98.49000000    49.72000000    98.15000000
   H     99.22000000    49.17000000    97.87000000
   H     98.46000000    50.41000000    97.49000000
   O     97.18000000    51.22000000   100.26500000
   H     97.84000000    51.03000000   100.93500000
   H     97.31000000    52.14000000   100.04500000
   O     94.31000000    50.54000000    98.05000000
   H     94.52000000    50.66000000    97.13000000
   H     93.57000000    51.13000000    98.21000000

Ca 1.00



