%chk=loop4.apoCaM-CA-Ng.Init31.run47.water4.chk
%nprocshared=20
%mem=10GB
%nosave
#b3lyp/svp scf=(tight,noincore,xqc) Test 
#IOP(5/87=12) Density=Current Pop=(MK,readradii) iop(6/33=2) iop(6/42=6)

loop4.apoCaM-CA-Ng.Init31.run47.water4 

   -3  1 
   C    100.73000000    46.30000000    -0.53000000
   C    101.99000000    45.50000000    -0.23000000
   O    102.33000000    45.28000000     0.94000000
   H     99.94200000    46.01000000     0.16600000
   H    100.93900000    47.36400000    -0.41900000
   H    100.40500000    46.09800000    -1.55100000
   N    102.75000000    44.96000000    -1.19000000
   C    102.27000000    44.60000000    -2.51000000
   C    101.69000000    43.19000000    -2.46000000
   O    100.91000000    42.83000000    -3.34000000
   C    103.35000000    44.74000000    -3.58000000
   C    103.80000000    46.20000000    -3.65000000
   O    103.23000000    47.14000000    -3.06000000
   O    104.76000000    46.46000000    -4.41000000
   H    103.61000000    44.51000000    -0.94000000
   H    101.47000000    45.19000000    -2.95000000
   H    102.91000000    44.42000000    -4.52000000
   H    104.17000000    44.07000000    -3.31000000
   N    101.95000000    42.43000000    -1.40000000
   C    101.41000000    41.13000000    -1.06000000
   C    101.84000000    40.13000000    -2.12000000
   O    101.06000000    39.31000000    -2.59000000
   C    101.91000000    40.62000000     0.29000000
   C    101.99000000    41.66000000     1.41000000
   C    101.16000000    39.34000000     0.66000000
   C    100.59000000    42.22000000     1.66000000
   H    102.74000000    42.75000000    -0.85000000
   H    100.33000000    41.22000000    -1.02000000
   H    102.96000000    40.39000000     0.11000000
   H    102.69000000    42.45000000     1.15000000
   H    102.40000000    41.22000000     2.31000000
   H    101.51000000    38.53000000     0.01000000
   H    101.39000000    39.07000000     1.69000000
   H    100.07000000    39.28000000     0.59000000
   H     99.91000000    41.43000000     1.97000000
   H    100.57000000    42.87000000     2.54000000
   H    100.08000000    42.61000000     0.78000000
   N    103.10000000    40.24000000    -2.55000000
   C    103.64000000    39.43000000    -3.63000000
   C    104.69000000    40.20000000    -4.41000000
   O    104.57000000    40.27000000    -5.63000000
   C    104.26000000    38.16000000    -3.05000000
   C    104.62000000    37.18000000    -4.16000000
   O    105.79000000    37.06000000    -4.58000000
   O    103.70000000    36.55000000    -4.71000000
   H    103.66000000    40.96000000    -2.13000000
   H    102.91000000    39.18000000    -4.40000000
   H    103.52000000    37.74000000    -2.38000000
   H    105.14000000    38.40000000    -2.45000000
   N    105.55000000    40.97000000    -3.73000000
   C    106.35000000    41.98000000    -4.39000000
   C    107.71000000    41.53000000    -4.92000000
   O    108.14000000    40.40000000    -4.67000000
   H    105.68000000    40.76000000    -2.75000000
   H    106.54000000    42.86000000    -3.78000000
   H    105.72000000    42.45000000    -5.14000000
   N    108.33000000    42.44000000    -5.67000000
   C    109.64000000    42.28000000    -6.26000000
   C    109.59000000    41.55000000    -7.60000000
   O    108.67000000    41.66000000    -8.41000000
   C    110.37000000    43.61000000    -6.44000000
   C    109.48000000    44.79000000    -6.79000000
   O    108.75000000    45.30000000    -5.91000000
   O    109.54000000    45.30000000    -7.93000000
   H    107.81000000    43.31000000    -5.67000000
   H    110.29000000    41.67000000    -5.64000000
   H    111.07000000    43.60000000    -7.27000000
   H    110.90000000    43.76000000    -5.50000000
   N    110.62000000    40.78000000    -7.95000000
   C    111.85000000    40.52000000    -7.23000000
   C    111.92000000    39.42000000    -6.18000000
   O    110.97000000    38.65000000    -6.08000000
   H    110.53000000    40.28000000    -8.82000000
   H    112.22000000    41.44000000    -6.78000000
   H    112.51000000    40.36000000    -8.08000000
   N    113.03000000    39.33000000    -5.44000000
   C    114.07000000    40.30000000    -5.13000000
   C    113.49000000    41.54000000    -4.48000000
   O    112.33000000    41.51000000    -4.07000000
   C    115.00000000    40.62000000    -6.29000000
   C    115.51000000    39.46000000    -7.15000000
   C    116.48000000    38.52000000    -6.45000000
   N    115.92000000    37.38000000    -6.04000000
   O    117.68000000    38.81000000    -6.45000000
   H    113.01000000    38.61000000    -4.74000000
   H    114.71000000    39.83000000    -4.39000000
   H    115.89000000    41.18000000    -5.99000000
   H    114.50000000    41.34000000    -6.94000000
   H    115.93000000    39.75000000    -8.11000000
   H    114.67000000    38.85000000    -7.48000000
   H    114.94000000    37.25000000    -5.84000000
   H    116.62000000    36.68000000    -5.83000000
   N    114.34000000    42.52000000    -4.16000000
   C    114.03000000    43.77000000    -3.49000000
   C    114.67000000    43.90000000    -2.12000000
   O    115.83000000    43.53000000    -1.95000000
   C    114.41000000    44.96000000    -4.36000000
   C    113.65000000    45.15000000    -5.67000000
   C    115.91000000    45.09000000    -4.61000000
   H    115.30000000    42.27000000    -4.32000000
   H    113.00000000    43.79000000    -3.15000000
   H    114.15000000    45.87000000    -3.82000000
   H    113.78000000    46.14000000    -6.11000000
   H    113.95000000    44.38000000    -6.38000000
   H    112.59000000    45.04000000    -5.43000000
   H    116.42000000    45.10000000    -3.64000000
   H    116.31000000    44.27000000    -5.20000000
   H    116.12000000    46.08000000    -5.02000000
   N    113.91000000    44.41000000    -1.14000000
   C    114.36000000    44.80000000     0.17000000
   C    113.69000000    46.04000000     0.74000000
   O    112.61000000    46.43000000     0.28000000
   C    114.18000000    43.63000000     1.14000000
   C    114.64000000    43.95000000     2.56000000
   N    113.79000000    43.79000000     3.58000000
   O    115.78000000    44.33000000     2.78000000
   H    113.00000000    44.72000000    -1.46000000
   H    115.41000000    45.10000000     0.09000000
   H    114.77000000    42.81000000     0.74000000
   H    113.13000000    43.34000000     1.12000000
   H    112.84000000    43.47000000     3.48000000
   H    114.27000000    43.90000000     4.46000000
   N    114.40000000    46.80000000     1.57000000
   C    113.83000000    47.98000000     2.20000000
   C    113.78000000    49.17000000     1.25000000
   O    114.76000000    49.61000000     0.66000000
   C    114.58000000    48.30000000     3.49000000
   C    114.23000000    49.61000000     4.14000000
   C    114.86000000    50.79000000     3.70000000
   C    113.47000000    49.62000000     5.32000000
   C    114.51000000    52.00000000     4.30000000
   C    113.08000000    50.84000000     5.88000000
   C    113.54000000    52.05000000     5.32000000
   O    113.42000000    53.25000000     5.95000000
   H    115.26000000    46.41000000     1.93000000
   H    112.86000000    47.76000000     2.63000000
   H    115.64000000    48.21000000     3.26000000
   H    114.40000000    47.44000000     4.14000000
   H    115.47000000    50.65000000     2.82000000
   H    113.13000000    48.66000000     5.68000000
   H    114.94000000    52.91000000     3.91000000
   H    112.54000000    50.85000000     6.82000000
   H    113.70000000    53.98000000     5.38000000
   N    112.60000000    49.80000000     1.28000000
   C    112.29000000    50.98000000     0.50000000
   C    110.77000000    51.05000000     0.37000000
   O    110.19000000    50.64000000     1.37000000
   C    112.83000000    52.21000000     1.23000000
   C    112.48000000    53.50000000     0.49000000
   C    113.10000000    54.73000000     1.13000000
   O    114.32000000    54.69000000     1.41000000
   O    112.41000000    55.71000000     1.48000000
   H    111.87000000    49.51000000     1.92000000
   H    112.68000000    50.95000000    -0.52000000
   H    113.91000000    52.16000000     1.35000000
   H    112.36000000    52.26000000     2.21000000
   H    111.41000000    53.70000000     0.47000000
   H    112.96000000    53.37000000    -0.48000000
   N    110.10000000    51.27000000    -0.76000000
   C    108.66000000    51.13000000    -0.86000000
   C    108.43000000    49.64000000    -1.07000000
   O    108.14000000    49.16000000    -2.16000000
   C    107.99000000    52.09000000    -1.84000000
   C    106.47000000    52.09000000    -1.68000000
   C    105.72000000    51.07000000    -2.53000000
   O    105.40000000    51.32000000    -3.71000000
   O    105.27000000    50.01000000    -2.03000000
   H    110.54000000    51.49000000    -1.65000000
   H    108.24000000    51.45000000     0.10000000
   H    108.22000000    51.73000000    -2.84000000
   H    108.44000000    53.07000000    -1.73000000
   H    106.11000000    53.06000000    -2.01000000
   H    106.13000000    52.13000000    -0.64000000
   N    108.46000000    48.86000000     0.02000000
   C    108.22000000    47.44000000    -0.07000000
   H    107.29100000    47.26300000    -0.61200000
   H    109.04500000    46.96400000    -0.60000000
   H    108.14100000    47.02000000     0.93300000
   H    108.77000000    49.22000000     0.91000000
  Ca    104.29300000    49.16000000    -4.50300000
   O    102.73300000    47.71000000    -6.21300000
   H    102.95300000    46.79000000    -6.07300000
   H    102.11300000    47.70000000    -6.94300000
   O    105.50300000    49.58000000    -6.84300000
   H    105.60300000    50.45000000    -7.23300000
   H    105.28300000    49.02000000    -7.58300000
   O    107.08300000    48.35000000    -4.45300000
   H    107.86300000    48.04000000    -4.92300000
   H    107.43300000    48.80000000    -3.69300000
   O    103.12300000    50.89000000    -6.32300000
   H    102.41300000    51.20000000    -5.77300000
   H    102.82300000    51.05000000    -7.22300000

Ca 1.00



