%chk=loop1.holoCaM-CaMKII.run31.water2.chk
%nprocshared=20
%mem=10GB
%nosave
#b3lyp/svp scf=(tight,noincore,xqc) Test 
#IOP(5/87=12) Density=Current Pop=(MK,readradii) iop(6/33=2) iop(6/42=6)

loop1.holoCaM-CaMKII.run31.water2 

   0  1 
   C     79.80000000    48.45000000    13.74000000
   C     79.86000000    49.04000000    12.34000000
   O     79.16000000    48.50000000    11.48000000
   H     78.81400000    48.63200000    14.16800000
   H     79.98200000    47.37600000    13.69100000
   H     80.55900000    48.91900000    14.36600000
   N     80.87000000    49.81000000    11.92000000
   C     81.06000000    50.17000000    10.53000000
   C     82.00000000    49.17000000     9.87000000
   O     83.20000000    49.11000000    10.12000000
   C     81.61000000    51.59000000    10.49000000
   C     82.03000000    52.05000000     9.11000000
   O     82.84000000    53.00000000     9.00000000
   O     81.75000000    51.35000000     8.11000000
   H     81.60000000    50.04000000    12.58000000
   H     80.13000000    50.19000000     9.98000000
   H     82.50000000    51.70000000    11.11000000
   H     80.91000000    52.28000000    10.98000000
   N     81.40000000    48.46000000     8.91000000
   C     81.92000000    47.26000000     8.31000000
   C     82.48000000    47.41000000     6.90000000
   O     82.92000000    46.38000000     6.39000000
   C     80.93000000    46.10000000     8.39000000
   C     80.77000000    45.65000000     9.84000000
   C     82.10000000    45.22000000    10.45000000
   C     81.78000000    44.48000000    11.74000000
   N     82.98000000    43.95000000    12.40000000
   H     80.43000000    48.73000000     8.75000000
   H     82.85000000    47.02000000     8.82000000
   H     81.37000000    45.22000000     7.92000000
   H     80.01000000    46.27000000     7.84000000
   H     80.08000000    44.81000000     9.84000000
   H     80.32000000    46.42000000    10.46000000
   H     82.69000000    46.12000000    10.67000000
   H     82.68000000    44.63000000     9.73000000
   H     81.04000000    43.72000000    11.52000000
   H     81.46000000    45.32000000    12.36000000
   H     82.62000000    43.55000000    13.25000000
   H     83.56000000    43.31000000    11.87000000
   H     83.69000000    44.64000000    12.60000000
   N     82.61000000    48.65000000     6.41000000
   C     83.53000000    49.00000000     5.34000000
   C     84.40000000    50.20000000     5.69000000
   O     85.17000000    50.66000000     4.84000000
   C     82.77000000    49.15000000     4.03000000
   C     81.43000000    49.87000000     4.10000000
   O     81.23000000    50.71000000     4.99000000
   O     80.55000000    49.44000000     3.32000000
   H     82.16000000    49.41000000     6.90000000
   H     84.27000000    48.21000000     5.22000000
   H     82.60000000    48.18000000     3.56000000
   H     83.41000000    49.62000000     3.28000000
   N     84.38000000    50.65000000     6.94000000
   C     85.34000000    51.64000000     7.39000000
   C     85.14000000    52.95000000     6.65000000
   O     86.07000000    53.73000000     6.45000000
   H     83.74000000    50.34000000     7.66000000
   H     86.37000000    51.31000000     7.23000000
   H     85.15000000    51.83000000     8.44000000
   N     83.97000000    53.14000000     6.04000000
   C     83.69000000    54.33000000     5.26000000
   C     83.55000000    55.57000000     6.13000000
   O     83.77000000    56.64000000     5.57000000
   C     82.57000000    54.13000000     4.25000000
   C     81.15000000    54.13000000     4.79000000
   O     80.94000000    54.10000000     6.02000000
   O     80.11000000    54.01000000     4.11000000
   H     83.17000000    52.60000000     6.34000000
   H     84.60000000    54.53000000     4.69000000
   H     82.76000000    53.28000000     3.58000000
   H     82.66000000    55.01000000     3.61000000
   N     83.22000000    55.42000000     7.41000000
   C     82.97000000    56.48000000     8.37000000
   C     81.51000000    56.77000000     8.70000000
   O     81.20000000    57.62000000     9.53000000
   H     83.06000000    54.49000000     7.77000000
   H     83.35000000    57.44000000     8.05000000
   H     83.41000000    56.08000000     9.29000000
   N     80.57000000    55.92000000     8.27000000
   C     79.15000000    55.96000000     8.58000000
   C     78.68000000    54.54000000     8.85000000
   O     79.27000000    53.54000000     8.45000000
   C     78.34000000    56.77000000     7.57000000
   C     78.40000000    58.29000000     7.70000000
   O     78.88000000    56.46000000     6.30000000
   H     80.90000000    55.28000000     7.57000000
   H     79.01000000    56.46000000     9.54000000
   H     77.31000000    56.44000000     7.64000000
   H     79.68000000    56.99000000     6.21000000
   H     79.44000000    58.63000000     7.65000000
   H     77.94000000    58.75000000     6.84000000
   H     78.04000000    58.57000000     8.69000000
   N     77.56000000    54.50000000     9.58000000
   C     76.92000000    53.25000000     9.94000000
   C     75.53000000    53.26000000     9.31000000
   O     74.86000000    54.26000000     9.52000000
   C     76.90000000    52.92000000    11.43000000
   C     78.29000000    53.10000000    12.02000000
   C     76.45000000    51.50000000    11.74000000
   C     78.35000000    53.06000000    13.55000000
   H     77.15000000    55.36000000     9.90000000
   H     77.57000000    52.47000000     9.55000000
   H     76.13000000    53.57000000    11.86000000
   H     78.72000000    54.06000000    11.75000000
   H     78.95000000    52.35000000    11.59000000
   H     76.47000000    51.36000000    12.82000000
   H     75.40000000    51.30000000    11.51000000
   H     77.07000000    50.81000000    11.17000000
   H     77.65000000    53.69000000    14.10000000
   H     78.18000000    52.02000000    13.82000000
   H     79.39000000    53.36000000    13.71000000
   N     75.19000000    52.24000000     8.52000000
   C     73.91000000    52.05000000     7.87000000
   C     72.92000000    51.33000000     8.77000000
   O     73.32000000    50.67000000     9.72000000
   C     74.05000000    51.19000000     6.61000000
   C     74.87000000    51.85000000     5.51000000
   O     74.62000000    49.92000000     6.84000000
   H     75.84000000    51.49000000     8.30000000
   H     73.44000000    52.99000000     7.62000000
   H     73.03000000    50.96000000     6.31000000
   H     75.55000000    50.13000000     6.73000000
   H     75.16000000    51.09000000     4.78000000
   H     74.30000000    52.63000000     4.99000000
   H     75.83000000    52.25000000     5.86000000
   N     71.64000000    51.25000000     8.37000000
   C     70.63000000    50.41000000     8.97000000
   C     70.91000000    48.92000000     8.90000000
   O     70.57000000    48.14000000     9.79000000
   C     69.24000000    50.50000000     8.33000000
   C     68.17000000    50.29000000     9.40000000
   O     69.06000000    51.75000000     7.70000000
   H     71.35000000    51.70000000     7.52000000
   H     70.49000000    50.66000000    10.03000000
   H     69.32000000    49.72000000     7.58000000
   H     68.16000000    51.72000000     7.37000000
   H     67.16000000    50.43000000     9.00000000
   H     68.24000000    49.34000000     9.92000000
   H     68.21000000    51.11000000    10.12000000
   N     71.58000000    48.52000000     7.82000000
   C     72.00000000    47.16000000     7.52000000
   C     73.10000000    46.75000000     8.49000000
   O     72.96000000    45.75000000     9.19000000
   C     72.48000000    47.22000000     6.08000000
   C     72.86000000    45.93000000     5.35000000
   C     71.89000000    44.77000000     5.14000000
   C     70.73000000    45.13000000     4.22000000
   N     69.50000000    44.36000000     4.52000000
   H     72.11000000    49.23000000     7.33000000
   H     71.16000000    46.47000000     7.61000000
   H     73.41000000    47.78000000     5.99000000
   H     71.77000000    47.67000000     5.38000000
   H     73.74000000    45.56000000     5.88000000
   H     73.33000000    46.21000000     4.41000000
   H     71.43000000    44.59000000     6.11000000
   H     72.51000000    43.95000000     4.80000000
   H     71.08000000    45.17000000     3.19000000
   H     70.42000000    46.16000000     4.38000000
   H     68.61000000    44.63000000     4.14000000
   H     69.60000000    43.38000000     4.29000000
   H     69.34000000    44.25000000     5.51000000
   N     74.21000000    47.49000000     8.45000000
   C     75.24000000    47.32000000     9.46000000
   C     74.74000000    47.42000000    10.89000000
   O     75.07000000    46.50000000    11.63000000
   C     76.31000000    48.38000000     9.19000000
   C     77.13000000    48.20000000     7.91000000
   C     77.91000000    49.46000000     7.57000000
   O     77.29000000    50.53000000     7.39000000
   O     79.16000000    49.52000000     7.48000000
   H     74.16000000    48.33000000     7.90000000
   H     75.70000000    46.35000000     9.34000000
   H     77.00000000    48.36000000    10.04000000
   H     75.87000000    49.37000000     9.14000000
   H     76.46000000    47.95000000     7.09000000
   H     77.80000000    47.35000000     7.97000000
   N     73.90000000    48.40000000    11.26000000
   C     73.26000000    48.44000000    12.56000000
   H     72.24900000    48.04000000    12.47900000
   H     73.83300000    47.83900000    13.26600000
   H     73.21500000    49.47100000    12.91200000
   H     73.73000000    49.13000000    10.58000000
  Ca     79.70000000    51.82000000     6.58000000
   O     77.87000000    53.80000000     5.68000000
   H     77.92000000    54.73000000     5.93000000
   H     78.09000000    53.80000000     4.75000000
   O     78.51000000    50.94000000     4.06000000
   H     79.26000000    50.44000000     3.74000000
   H     77.84000000    50.84000000     3.37000000

Ca 1.00



