%chk=loop2.apoCaM-CA-Ng.Init295.run89.water2.chk
%nprocshared=20
%mem=10GB
%nosave
#b3lyp/svp scf=(tight,noincore,xqc) Test 
#IOP(5/87=12) Density=Current Pop=(MK,readradii) iop(6/33=2) iop(6/42=6)

loop2.apoCaM-CA-Ng.Init295.run89.water2 

   -2  1 
   C    120.44000000     5.47000000    81.54000000
   C    120.83000000     5.90000000    82.95000000
   O    120.45000000     6.98000000    83.39000000
   H    119.59400000     6.06800000    81.19900000
   H    121.28400000     5.62000000    80.86700000
   H    120.16100000     4.41600000    81.54500000
   N    121.69000000     5.13000000    83.62000000
   C    122.29000000     5.45000000    84.90000000
   C    121.36000000     5.26000000    86.09000000
   O    121.83000000     5.36000000    87.22000000
   C    123.61000000     4.71000000    85.11000000
   C    124.68000000     4.83000000    84.03000000
   O    125.74000000     4.19000000    84.17000000
   O    124.46000000     5.53000000    83.02000000
   H    122.06000000     4.33000000    83.12000000
   H    122.60000000     6.49000000    84.86000000
   H    123.46000000     3.64000000    85.26000000
   H    123.99000000     5.09000000    86.05000000
   N    120.06000000     5.02000000    85.90000000
   C    118.96000000     5.22000000    86.82000000
   C    117.69000000     4.46000000    86.46000000
   O    117.41000000     4.19000000    85.29000000
   C    118.58000000     6.70000000    86.87000000
   H    119.80000000     4.80000000    84.95000000
   H    119.32000000     4.86000000    87.78000000
   H    119.46000000     7.28000000    87.15000000
   H    118.27000000     7.19000000    85.95000000
   H    117.86000000     6.89000000    87.66000000
   N    116.91000000     3.92000000    87.40000000
   C    116.91000000     4.23000000    88.82000000
   C    117.55000000     3.18000000    89.72000000
   O    117.84000000     3.51000000    90.87000000
   C    115.44000000     4.29000000    89.23000000
   C    115.07000000     5.20000000    90.40000000
   O    115.57000000     6.34000000    90.51000000
   O    114.24000000     4.80000000    91.23000000
   H    116.25000000     3.24000000    87.07000000
   H    117.42000000     5.15000000    89.09000000
   H    115.06000000     3.28000000    89.40000000
   H    114.90000000     4.78000000    88.42000000
   N    117.82000000     1.96000000    89.26000000
   C    118.70000000     0.98000000    89.87000000
   C    120.18000000     1.28000000    89.73000000
   O    120.40000000     2.22000000    88.97000000
   H    118.01000000     1.93000000    88.27000000
   H    118.32000000     0.05000000    89.42000000
   H    118.59000000     0.87000000    90.94000000
   N    121.09000000     0.45000000    90.25000000
   C    120.93000000    -0.84000000    90.88000000
   C    120.15000000    -1.85000000    90.05000000
   O    120.41000000    -2.04000000    88.87000000
   C    122.32000000    -1.29000000    91.31000000
   C    122.18000000    -2.63000000    92.01000000
   N    122.55000000    -3.74000000    91.37000000
   O    121.78000000    -2.83000000    93.16000000
   H    122.06000000     0.65000000    90.03000000
   H    120.30000000    -0.66000000    91.75000000
   H    122.88000000    -0.58000000    91.92000000
   H    122.77000000    -1.42000000    90.32000000
   H    122.76000000    -3.71000000    90.38000000
   H    122.72000000    -4.59000000    91.89000000
   N    119.39000000    -2.71000000    90.75000000
   C    118.59000000    -3.76000000    90.16000000
   C    117.09000000    -3.52000000    90.16000000
   O    116.40000000    -4.30000000    89.50000000
   H    119.27000000    -2.59000000    91.74000000
   H    118.80000000    -4.71000000    90.64000000
   H    118.81000000    -3.99000000    89.12000000
   N    116.53000000    -2.56000000    90.90000000
   C    115.10000000    -2.30000000    90.99000000
   C    114.59000000    -1.12000000    90.19000000
   O    115.11000000    -0.01000000    90.34000000
   C    114.62000000    -2.08000000    92.42000000
   C    113.11000000    -1.90000000    92.55000000
   O    114.87000000    -3.23000000    93.19000000
   H    117.14000000    -1.97000000    91.44000000
   H    114.58000000    -3.18000000    90.59000000
   H    115.09000000    -1.20000000    92.85000000
   H    115.64000000    -3.65000000    92.80000000
   H    112.62000000    -2.69000000    91.97000000
   H    112.98000000    -1.81000000    93.63000000
   H    112.73000000    -1.04000000    92.01000000
   N    113.49000000    -1.29000000    89.45000000
   C    112.77000000    -0.22000000    88.79000000
   C    111.28000000    -0.46000000    88.95000000
   O    110.84000000    -1.56000000    89.27000000
   C    113.16000000    -0.05000000    87.32000000
   C    114.55000000     0.55000000    87.13000000
   C    112.84000000    -1.33000000    86.56000000
   C    114.93000000     0.59000000    85.65000000
   H    113.05000000    -2.19000000    89.61000000
   H    112.86000000     0.75000000    89.27000000
   H    112.47000000     0.65000000    86.85000000
   H    115.36000000     0.09000000    87.70000000
   H    114.54000000     1.57000000    87.51000000
   H    113.66000000    -2.02000000    86.74000000
   H    111.84000000    -1.74000000    86.73000000
   H    112.81000000    -1.04000000    85.51000000
   H    114.21000000     1.21000000    85.11000000
   H    115.95000000     0.95000000    85.65000000
   H    114.99000000    -0.40000000    85.18000000
   N    110.53000000     0.63000000    88.76000000
   C    109.08000000     0.64000000    88.88000000
   C    108.44000000     1.76000000    88.09000000
   O    108.92000000     2.88000000    87.98000000
   C    108.64000000     0.78000000    90.34000000
   C    109.60000000     1.67000000    91.11000000
   O    110.69000000     1.22000000    91.53000000
   O    109.37000000     2.89000000    91.27000000
   H    110.98000000     1.52000000    88.67000000
   H    108.60000000    -0.25000000    88.48000000
   H    108.65000000    -0.22000000    90.78000000
   H    107.65000000     1.23000000    90.36000000
   N    107.26000000     1.40000000    87.57000000
   C    106.38000000     2.35000000    86.92000000
   C    107.08000000     3.10000000    85.79000000
   O    107.72000000     2.48000000    84.95000000
   C    105.18000000     1.54000000    86.43000000
   C    104.02000000     2.43000000    86.04000000
   C    103.87000000     2.97000000    84.76000000
   C    103.06000000     2.79000000    86.99000000
   C    102.90000000     3.95000000    84.51000000
   C    102.08000000     3.76000000    86.73000000
   C    101.92000000     4.29000000    85.44000000
   H    106.95000000     0.46000000    87.77000000
   H    106.10000000     3.01000000    87.75000000
   H    104.87000000     0.84000000    87.20000000
   H    105.45000000     0.87000000    85.62000000
   H    104.64000000     2.75000000    84.04000000
   H    103.13000000     2.36000000    87.98000000
   H    102.89000000     4.44000000    83.54000000
   H    101.53000000     4.32000000    87.47000000
   H    101.19000000     5.07000000    85.23000000
   N    106.80000000     4.40000000    85.65000000
   C    107.40000000     5.21000000    84.61000000
   C    108.91000000     5.14000000    84.46000000
   O    109.50000000     5.66000000    83.51000000
   C    106.82000000     6.61000000    84.79000000
   C    105.51000000     6.39000000    85.55000000
   C    105.93000000     5.23000000    86.46000000
   H    106.99000000     4.76000000    83.70000000
   H    107.55000000     7.21000000    85.32000000
   H    106.57000000     7.07000000    83.84000000
   H    105.32000000     7.31000000    86.11000000
   H    104.78000000     6.10000000    84.80000000
   H    106.48000000     5.67000000    87.29000000
   H    105.06000000     4.71000000    86.86000000
   N    109.64000000     4.48000000    85.36000000
   C    111.04000000     4.16000000    85.20000000
   C    111.34000000     3.32000000    83.96000000
   O    112.34000000     3.49000000    83.27000000
   C    111.70000000     3.67000000    86.48000000
   C    111.93000000     4.84000000    87.44000000
   C    111.82000000     4.28000000    88.85000000
   O    111.62000000     5.09000000    89.78000000
   O    112.05000000     3.12000000    89.26000000
   H    109.17000000     3.94000000    86.08000000
   H    111.44000000     5.17000000    85.10000000
   H    112.65000000     3.15000000    86.35000000
   H    111.01000000     2.92000000    86.88000000
   H    111.18000000     5.62000000    87.37000000
   H    112.88000000     5.29000000    87.16000000
   N    110.41000000     2.40000000    83.71000000
   C    110.23000000     1.63000000    82.50000000
   H    109.50700000     2.13000000    81.85600000
   H    111.18300000     1.54500000    81.97800000
   H    109.86300000     0.63500000    82.75300000
   H    109.64000000     2.47000000    84.36000000
  Ca    111.83400000     3.66000000    91.86000000
   O    113.91400000     2.05000000    92.12000000
   H    114.53400000     1.70000000    92.77000000
   H    114.08400000     1.55000000    91.33000000
   O    109.88400000     5.44000000    92.62000000
   H    108.93400000     5.32000000    92.70000000
   H    110.18400000     5.55000000    93.52000000

Ca 1.00



