%chk=loop2.apoCaM-CA-Ng.Init31.run91.water5.chk
%nprocshared=20
%mem=10GB
%nosave
#b3lyp/svp scf=(tight,noincore,xqc) Test 
#IOP(5/87=12) Density=Current Pop=(MK,readradii) iop(6/33=2) iop(6/42=6)

loop2.apoCaM-CA-Ng.Init31.run91.water5 

   -2  1 
   C     45.44000000    55.60000000    27.14000000
   C     45.58000000    54.12000000    27.47000000
   O     44.56000000    53.45000000    27.39000000
   H     44.59000000    56.01400000    27.68300000
   H     46.34900000    56.12600000    27.43300000
   H     45.28000000    55.72000000    26.06900000
   N     46.75000000    53.60000000    27.84000000
   C     48.00000000    54.28000000    28.16000000
   C     48.76000000    53.49000000    29.21000000
   O     48.53000000    52.29000000    29.37000000
   C     48.88000000    54.58000000    26.95000000
   C     49.15000000    53.38000000    26.05000000
   O     49.24000000    52.23000000    26.54000000
   O     49.52000000    53.75000000    24.92000000
   H     46.68000000    52.62000000    28.09000000
   H     47.92000000    55.27000000    28.60000000
   H     49.83000000    55.07000000    27.17000000
   H     48.34000000    55.32000000    26.36000000
   N     49.77000000    54.05000000    29.87000000
   C     50.84000000    53.27000000    30.47000000
   C     50.53000000    52.91000000    31.92000000
   O     51.35000000    52.48000000    32.73000000
   C     52.12000000    54.09000000    30.37000000
   H     49.75000000    55.06000000    29.91000000
   H     51.07000000    52.35000000    29.94000000
   H     51.94000000    54.93000000    31.04000000
   H     52.97000000    53.57000000    30.80000000
   H     52.33000000    54.49000000    29.38000000
   N     49.28000000    53.02000000    32.38000000
   C     48.77000000    52.51000000    33.64000000
   C     48.68000000    50.99000000    33.67000000
   O     48.88000000    50.39000000    32.62000000
   C     47.39000000    53.12000000    33.87000000
   C     46.37000000    52.99000000    32.75000000
   O     46.61000000    52.34000000    31.72000000
   O     45.21000000    53.44000000    32.95000000
   H     48.58000000    53.11000000    31.66000000
   H     49.43000000    52.79000000    34.46000000
   H     47.66000000    54.14000000    34.12000000
   H     46.98000000    52.79000000    34.83000000
   N     48.62000000    50.38000000    34.85000000
   C     48.47000000    48.93000000    34.82000000
   C     46.96000000    48.74000000    34.87000000
   O     46.23000000    49.56000000    35.43000000
   H     48.28000000    50.91000000    35.64000000
   H     48.94000000    48.55000000    35.72000000
   H     48.79000000    48.42000000    33.91000000
   N     46.53000000    47.56000000    34.43000000
   C     45.15000000    47.13000000    34.32000000
   C     44.97000000    45.70000000    34.81000000
   O     45.86000000    44.89000000    34.55000000
   C     44.71000000    47.26000000    32.86000000
   C     44.33000000    48.68000000    32.49000000
   N     43.08000000    49.10000000    32.72000000
   O     45.11000000    49.31000000    31.78000000
   H     47.25000000    46.91000000    34.14000000
   H     44.67000000    47.80000000    35.03000000
   H     43.89000000    46.61000000    32.53000000
   H     45.55000000    46.91000000    32.26000000
   H     42.52000000    48.48000000    33.28000000
   H     42.83000000    50.07000000    32.56000000
   N     43.84000000    45.41000000    35.46000000
   C     43.48000000    44.05000000    35.81000000
   C     44.40000000    43.34000000    36.79000000
   O     44.98000000    42.29000000    36.54000000
   H     43.25000000    46.17000000    35.78000000
   H     43.43000000    43.40000000    34.94000000
   H     42.53000000    44.18000000    36.34000000
   N     44.58000000    43.76000000    38.05000000
   C     43.94000000    44.87000000    38.72000000
   C     44.89000000    45.83000000    39.43000000
   O     44.47000000    46.94000000    39.76000000
   C     42.98000000    44.33000000    39.78000000
   C     41.79000000    43.56000000    39.21000000
   O     43.62000000    43.41000000    40.64000000
   H     45.19000000    43.13000000    38.54000000
   H     43.35000000    45.47000000    38.03000000
   H     42.57000000    45.10000000    40.42000000
   H     43.40000000    43.70000000    41.53000000
   H     41.52000000    43.90000000    38.21000000
   H     42.04000000    42.50000000    39.15000000
   H     40.98000000    43.68000000    39.94000000
   N     46.16000000    45.48000000    39.65000000
   C     47.14000000    46.24000000    40.38000000
   C     46.71000000    46.38000000    41.83000000
   O     45.96000000    47.24000000    42.31000000
   C     47.55000000    47.57000000    39.76000000
   C     47.50000000    47.66000000    38.24000000
   C     48.87000000    48.13000000    40.30000000
   C     48.36000000    46.65000000    37.49000000
   H     46.41000000    44.57000000    39.28000000
   H     48.06000000    45.66000000    40.30000000
   H     46.76000000    48.30000000    39.96000000
   H     47.67000000    48.67000000    37.85000000
   H     46.48000000    47.45000000    37.91000000
   H     48.85000000    48.18000000    41.39000000
   H     49.71000000    47.56000000    39.91000000
   H     49.05000000    49.13000000    39.91000000
   H     49.42000000    46.89000000    37.44000000
   H     48.19000000    45.67000000    37.95000000
   H     48.01000000    46.52000000    36.47000000
   N     47.26000000    45.56000000    42.73000000
   C     48.15000000    44.44000000    42.49000000
   C     49.58000000    44.95000000    42.42000000
   O     50.24000000    44.78000000    41.39000000
   C     47.96000000    43.32000000    43.50000000
   C     47.71000000    43.76000000    44.93000000
   O     48.22000000    43.17000000    45.90000000
   O     46.91000000    44.71000000    45.16000000
   H     46.90000000    45.65000000    43.66000000
   H     47.90000000    43.95000000    41.55000000
   H     48.91000000    42.78000000    43.50000000
   H     47.16000000    42.61000000    43.26000000
   N     50.01000000    45.51000000    43.56000000
   C     51.36000000    45.96000000    43.80000000
   C     51.92000000    45.58000000    45.16000000
   O     51.09000000    45.36000000    46.04000000
   C     51.46000000    47.45000000    43.46000000
   C     50.70000000    48.36000000    44.38000000
   C     51.36000000    49.12000000    45.35000000
   C     49.31000000    48.51000000    44.33000000
   C     50.69000000    50.00000000    46.21000000
   C     48.59000000    49.38000000    45.15000000
   C     49.30000000    50.09000000    46.13000000
   H     49.35000000    45.50000000    44.32000000
   H     52.01000000    45.55000000    43.02000000
   H     51.31000000    47.71000000    42.41000000
   H     52.52000000    47.67000000    43.58000000
   H     52.42000000    48.95000000    45.50000000
   H     48.76000000    47.91000000    43.62000000
   H     51.31000000    50.63000000    46.83000000
   H     47.51000000    49.38000000    45.17000000
   H     48.77000000    50.73000000    46.82000000
   N     53.19000000    45.80000000    45.50000000
   C     54.38000000    45.78000000    44.68000000
   C     54.43000000    44.76000000    43.55000000
   O     53.62000000    43.83000000    43.65000000
   C     55.60000000    45.79000000    45.60000000
   C     55.04000000    46.56000000    46.80000000
   C     53.62000000    45.99000000    46.87000000
   H     54.24000000    46.74000000    44.20000000
   H     55.87000000    44.79000000    45.93000000
   H     56.51000000    46.25000000    45.21000000
   H     55.65000000    46.27000000    47.66000000
   H     55.06000000    47.63000000    46.61000000
   H     53.65000000    45.05000000    47.41000000
   H     52.98000000    46.67000000    47.43000000
   N     55.27000000    44.97000000    42.54000000
   C     55.32000000    44.23000000    41.30000000
   C     55.90000000    45.13000000    40.21000000
   O     56.91000000    44.85000000    39.57000000
   C     56.14000000    42.96000000    41.46000000
   C     55.55000000    41.90000000    42.39000000
   C     56.05000000    40.50000000    42.09000000
   O     55.44000000    39.81000000    41.25000000
   O     57.00000000    40.05000000    42.77000000
   H     55.83000000    45.81000000    42.52000000
   H     54.31000000    44.10000000    40.90000000
   H     57.16000000    43.18000000    41.79000000
   H     56.29000000    42.53000000    40.47000000
   H     54.47000000    41.97000000    42.20000000
   H     55.76000000    42.16000000    43.43000000
   N     55.29000000    46.28000000    39.92000000
   C     54.22000000    47.07000000    40.48000000
   H     53.33300000    46.44700000    40.59900000
   H     54.52400000    47.45800000    41.45200000
   H     53.99300000    47.90100000    39.81200000
   H     55.88000000    46.77000000    39.26000000
  Ca     47.23000000    50.18000000    30.42000000
   O     47.43000000    50.36000000    27.54000000
   H     47.08000000    50.28000000    26.66000000
   H     48.15000000    50.98000000    27.47000000
   O     48.14000000    47.78000000    31.58000000
   H     48.32000000    47.19000000    30.85000000
   H     48.58000000    47.36000000    32.33000000
   O     45.26000000    51.43000000    29.37000000
   H     44.64000000    52.01000000    29.82000000
   H     44.95000000    51.40000000    28.47000000
   O     49.80000000    49.47000000    29.73000000
   H     50.31000000    49.82000000    29.00000000
   H     50.15000000    48.60000000    29.87000000
   O     45.84000000    48.16000000    29.22000000
   H     45.03000000    48.44000000    28.78000000
   H     45.67000000    47.25000000    29.46000000

Ca 1.00



