%chk=loop1.holoCaM-CaMKII.run60.water1.chk
%nprocshared=20
%mem=10GB
%nosave
#b3lyp/svp scf=(tight,noincore,xqc) Test 
#IOP(5/87=12) Density=Current Pop=(MK,readradii) iop(6/33=2) iop(6/42=6)

loop1.holoCaM-CaMKII.run60.water1 

   0  1 
   C      5.62000000    52.46000000    18.70000000
   C      4.46000000    53.24000000    18.09000000
   O      3.87000000    52.81000000    17.10000000
   H      6.45400000    53.13700000    18.88800000
   H      5.30100000    52.00900000    19.63900000
   H      5.93600000    51.67800000    18.00900000
   N      4.02000000    54.38000000    18.64000000
   C      2.89000000    55.20000000    18.25000000
   C      3.22000000    56.21000000    17.16000000
   O      3.30000000    57.41000000    17.42000000
   C      2.27000000    55.92000000    19.44000000
   C      1.03000000    56.76000000    19.15000000
   O      0.62000000    57.64000000    19.93000000
   O      0.41000000    56.47000000    18.10000000
   H      4.63000000    54.66000000    19.39000000
   H      2.18000000    54.45000000    17.89000000
   H      3.06000000    56.59000000    19.77000000
   H      2.02000000    55.30000000    20.29000000
   N      3.21000000    55.68000000    15.94000000
   C      3.41000000    56.37000000    14.68000000
   C      2.30000000    57.32000000    14.27000000
   O      2.45000000    58.19000000    13.42000000
   C      3.52000000    55.29000000    13.61000000
   C      4.52000000    54.19000000    13.95000000
   C      5.96000000    54.59000000    14.27000000
   C      6.99000000    53.56000000    13.82000000
   N      7.21000000    52.43000000    14.73000000
   H      3.08000000    54.67000000    15.94000000
   H      4.29000000    56.99000000    14.78000000
   H      3.85000000    55.65000000    12.63000000
   H      2.51000000    54.94000000    13.38000000
   H      4.51000000    53.51000000    13.10000000
   H      4.15000000    53.49000000    14.69000000
   H      6.01000000    54.79000000    15.34000000
   H      6.09000000    55.51000000    13.69000000
   H      7.90000000    54.10000000    13.57000000
   H      6.64000000    53.13000000    12.88000000
   H      7.98000000    51.88000000    14.38000000
   H      7.52000000    52.62000000    15.67000000
   H      6.40000000    51.82000000    14.74000000
   N      1.11000000    57.18000000    14.87000000
   C      0.14000000    58.26000000    14.92000000
   C      0.53000000    59.46000000    15.77000000
   O      0.39000000    60.57000000    15.26000000
   C     -1.26000000    57.81000000    15.31000000
   C     -1.75000000    56.50000000    14.72000000
   O     -1.88000000    55.49000000    15.45000000
   O     -1.91000000    56.45000000    13.48000000
   H      1.11000000    56.59000000    15.69000000
   H     -0.10000000    58.59000000    13.91000000
   H     -1.97000000    58.63000000    15.31000000
   H     -1.06000000    57.60000000    16.37000000
   N      0.99000000    59.24000000    17.01000000
   C      1.10000000    60.31000000    17.98000000
   C     -0.23000000    60.77000000    18.56000000
   O     -0.45000000    61.96000000    18.73000000
   H      1.07000000    58.29000000    17.32000000
   H      1.68000000    61.15000000    17.57000000
   H      1.67000000    59.89000000    18.81000000
   N     -1.19000000    59.86000000    18.74000000
   C     -2.53000000    60.14000000    19.21000000
   C     -2.59000000    59.78000000    20.69000000
   O     -3.43000000    60.36000000    21.37000000
   C     -3.59000000    59.32000000    18.48000000
   C     -3.40000000    57.81000000    18.40000000
   O     -2.55000000    57.15000000    19.04000000
   O     -4.18000000    57.18000000    17.65000000
   H     -0.94000000    58.89000000    18.55000000
   H     -2.81000000    61.19000000    19.11000000
   H     -3.66000000    59.76000000    17.49000000
   H     -4.56000000    59.40000000    18.98000000
   N     -1.62000000    59.02000000    21.21000000
   C     -1.50000000    58.62000000    22.59000000
   C     -1.94000000    57.19000000    22.87000000
   O     -2.12000000    56.81000000    24.03000000
   H     -0.90000000    58.66000000    20.60000000
   H     -2.22000000    59.21000000    23.15000000
   H     -0.50000000    58.82000000    22.98000000
   N     -2.06000000    56.41000000    21.79000000
   C     -2.26000000    54.98000000    21.94000000
   C     -1.13000000    54.13000000    21.37000000
   O     -0.55000000    54.45000000    20.34000000
   C     -3.60000000    54.55000000    21.37000000
   C     -4.85000000    55.22000000    21.91000000
   O     -3.63000000    54.65000000    19.96000000
   H     -1.99000000    56.89000000    20.91000000
   H     -2.30000000    54.64000000    22.98000000
   H     -3.76000000    53.49000000    21.60000000
   H     -4.54000000    54.80000000    19.69000000
   H     -4.69000000    55.70000000    22.88000000
   H     -5.17000000    56.00000000    21.21000000
   H     -5.61000000    54.45000000    22.03000000
   N     -1.00000000    52.88000000    21.82000000
   C     -0.34000000    51.74000000    21.21000000
   C     -1.27000000    50.55000000    21.08000000
   O     -1.86000000    50.07000000    22.05000000
   C      0.95000000    51.42000000    21.96000000
   C      1.76000000    52.66000000    22.31000000
   C      1.78000000    50.55000000    21.02000000
   C      3.09000000    52.47000000    23.04000000
   H     -1.49000000    52.71000000    22.69000000
   H     -0.06000000    52.05000000    20.20000000
   H      0.61000000    50.91000000    22.86000000
   H      1.17000000    53.30000000    22.98000000
   H      1.97000000    53.24000000    21.41000000
   H      1.20000000    49.72000000    20.64000000
   H      2.07000000    51.18000000    20.18000000
   H      2.66000000    50.12000000    21.51000000
   H      3.73000000    51.81000000    22.46000000
   H      3.61000000    53.42000000    23.14000000
   H      2.89000000    52.12000000    24.05000000
   N     -1.41000000    50.09000000    19.83000000
   C     -2.24000000    48.95000000    19.50000000
   C     -1.39000000    47.70000000    19.35000000
   O     -0.18000000    47.79000000    19.16000000
   C     -3.06000000    49.04000000    18.21000000
   C     -3.88000000    50.31000000    17.98000000
   O     -2.31000000    48.90000000    17.02000000
   H     -0.88000000    50.57000000    19.12000000
   H     -2.96000000    48.78000000    20.30000000
   H     -3.73000000    48.19000000    18.16000000
   H     -2.97000000    49.08000000    16.34000000
   H     -3.25000000    51.20000000    18.05000000
   H     -4.43000000    50.26000000    17.04000000
   H     -4.62000000    50.37000000    18.77000000
   N     -1.97000000    46.49000000    19.36000000
   C     -1.29000000    45.23000000    19.16000000
   C     -0.58000000    45.10000000    17.82000000
   O      0.41000000    44.38000000    17.71000000
   C     -2.30000000    44.08000000    19.16000000
   C     -2.57000000    43.55000000    20.56000000
   O     -3.48000000    44.52000000    18.52000000
   H     -2.97000000    46.47000000    19.49000000
   H     -0.48000000    45.25000000    19.90000000
   H     -1.82000000    43.24000000    18.66000000
   H     -3.26000000    44.99000000    17.71000000
   H     -3.22000000    44.29000000    21.01000000
   H     -3.09000000    42.59000000    20.49000000
   H     -1.66000000    43.40000000    21.15000000
   N     -1.00000000    45.86000000    16.82000000
   C     -0.29000000    46.07000000    15.57000000
   C      0.83000000    47.10000000    15.73000000
   O      1.87000000    46.77000000    15.18000000
   C     -1.22000000    46.36000000    14.39000000
   C     -0.66000000    46.18000000    12.98000000
   C     -1.79000000    46.39000000    11.99000000
   C     -2.90000000    45.34000000    11.99000000
   N     -3.75000000    45.38000000    10.79000000
   H     -1.75000000    46.53000000    16.94000000
   H      0.24000000    45.14000000    15.38000000
   H     -1.62000000    47.37000000    14.37000000
   H     -2.07000000    45.70000000    14.52000000
   H     -0.23000000    45.19000000    12.88000000
   H      0.12000000    46.92000000    12.79000000
   H     -1.41000000    46.43000000    10.96000000
   H     -2.22000000    47.39000000    12.13000000
   H     -3.46000000    45.43000000    12.92000000
   H     -2.48000000    44.34000000    11.96000000
   H     -4.45000000    46.11000000    10.82000000
   H     -3.14000000    45.49000000     9.99000000
   H     -4.27000000    44.53000000    10.65000000
   N      0.65000000    48.26000000    16.37000000
   C      1.77000000    49.16000000    16.57000000
   C      2.92000000    48.55000000    17.36000000
   O      4.09000000    48.76000000    17.04000000
   C      1.27000000    50.45000000    17.21000000
   C      0.73000000    51.47000000    16.20000000
   C      0.01000000    52.55000000    17.00000000
   O      0.25000000    53.73000000    16.67000000
   O     -0.90000000    52.33000000    17.82000000
   H     -0.26000000    48.50000000    16.73000000
   H      2.18000000    49.38000000    15.59000000
   H      2.01000000    50.98000000    17.80000000
   H      0.37000000    50.23000000    17.79000000
   H      0.23000000    51.04000000    15.34000000
   H      1.61000000    51.96000000    15.78000000
   N      2.57000000    47.70000000    18.34000000
   C      3.46000000    46.92000000    19.17000000
   H      4.35400000    47.50300000    19.39100000
   H      2.95600000    46.66200000    20.10100000
   H      3.74200000    46.00800000    18.64400000
   H      1.60000000    47.60000000    18.59000000
  Ca     -1.58100000    54.96000000    17.97000000
   O     -3.83100000    53.57000000    17.18000000
   H     -4.73100000    53.28000000    17.29000000
   H     -3.56100000    53.20000000    16.34000000

Ca 1.00



