%chk=loop3.holoCaM-CaMKII.run55.water2.chk
%nprocshared=20
%mem=10GB
%nosave
#b3lyp/svp scf=(tight,noincore,xqc) Test 
#IOP(5/87=12) Density=Current Pop=(MK,readradii) iop(6/33=2) iop(6/42=6)

loop3.holoCaM-CaMKII.run55.water2 

   0  1 
   C     32.25000000    46.45000000    19.43000000
   C     33.35000000    45.44000000    19.75000000
   O     33.73000000    44.74000000    18.82000000
   H     31.38300000    46.25400000    20.06100000
   H     32.61600000    47.45900000    19.62000000
   H     31.96500000    46.35800000    18.38200000
   N     33.73000000    45.37000000    21.02000000
   C     34.76000000    44.43000000    21.44000000
   C     34.11000000    43.21000000    22.08000000
   O     33.85000000    43.18000000    23.28000000
   C     35.75000000    45.11000000    22.39000000
   C     36.87000000    44.16000000    22.77000000
   O     37.15000000    43.21000000    21.99000000
   O     37.39000000    44.43000000    23.87000000
   H     33.29000000    45.94000000    21.73000000
   H     35.29000000    44.23000000    20.51000000
   H     35.15000000    45.43000000    23.24000000
   H     36.12000000    46.06000000    22.01000000
   N     33.86000000    42.21000000    21.24000000
   C     33.19000000    40.94000000    21.49000000
   C     34.14000000    39.84000000    21.93000000
   O     33.69000000    38.77000000    22.34000000
   C     32.45000000    40.46000000    20.25000000
   C     31.19000000    41.31000000    20.07000000
   C     30.36000000    40.84000000    18.88000000
   C     29.87000000    39.40000000    19.02000000
   N     28.75000000    39.26000000    19.97000000
   H     34.02000000    42.37000000    20.26000000
   H     32.49000000    41.09000000    22.32000000
   H     32.03000000    39.47000000    20.46000000
   H     33.01000000    40.43000000    19.32000000
   H     31.53000000    42.34000000    19.93000000
   H     30.60000000    41.35000000    20.98000000
   H     30.86000000    40.86000000    17.91000000
   H     29.50000000    41.51000000    18.93000000
   H     30.69000000    38.75000000    19.33000000
   H     29.57000000    39.02000000    18.04000000
   H     28.37000000    38.34000000    19.84000000
   H     29.03000000    39.41000000    20.93000000
   H     28.17000000    40.07000000    19.83000000
   N     35.46000000    40.00000000    21.83000000
   C     36.45000000    39.15000000    22.46000000
   C     36.74000000    39.70000000    23.85000000
   O     37.41000000    39.13000000    24.71000000
   C     37.72000000    39.00000000    21.62000000
   C     38.26000000    40.34000000    21.14000000
   O     39.41000000    40.69000000    21.48000000
   O     37.62000000    41.04000000    20.32000000
   H     35.84000000    40.75000000    21.28000000
   H     36.15000000    38.11000000    22.58000000
   H     37.46000000    38.41000000    20.74000000
   H     38.48000000    38.46000000    22.18000000
   N     36.24000000    40.90000000    24.16000000
   C     36.43000000    41.55000000    25.43000000
   C     37.87000000    41.91000000    25.80000000
   O     38.16000000    42.00000000    26.99000000
   H     35.80000000    41.45000000    23.43000000
   H     36.02000000    41.01000000    26.29000000
   H     35.93000000    42.52000000    25.45000000
   N     38.80000000    42.04000000    24.85000000
   C     40.21000000    42.11000000    25.17000000
   C     40.61000000    43.53000000    25.56000000
   O     41.72000000    43.75000000    26.02000000
   C     41.04000000    41.47000000    24.07000000
   C     41.36000000    42.41000000    22.92000000
   N     42.55000000    42.21000000    22.35000000
   O     40.59000000    43.26000000    22.48000000
   H     38.54000000    42.01000000    23.87000000
   H     40.33000000    41.50000000    26.07000000
   H     40.50000000    40.61000000    23.68000000
   H     41.97000000    41.04000000    24.45000000
   H     43.22000000    41.53000000    22.68000000
   H     42.81000000    42.68000000    21.49000000
   N     39.67000000    44.48000000    25.47000000
   C     39.88000000    45.88000000    25.79000000
   C     39.80000000    46.90000000    24.66000000
   O     39.75000000    48.08000000    24.98000000
   H     38.88000000    44.37000000    24.86000000
   H     40.91000000    45.99000000    26.12000000
   H     39.14000000    46.19000000    26.53000000
   N     39.99000000    46.47000000    23.40000000
   C     40.39000000    47.28000000    22.26000000
   C     39.59000000    47.07000000    20.98000000
   O     39.52000000    45.93000000    20.53000000
   C     41.87000000    47.06000000    22.01000000
   C     42.71000000    47.14000000    23.26000000
   C     43.35000000    48.36000000    23.55000000
   C     42.98000000    45.97000000    23.98000000
   C     44.25000000    48.38000000    24.61000000
   C     43.74000000    46.05000000    25.15000000
   C     44.44000000    47.24000000    25.42000000
   O     45.42000000    47.31000000    26.36000000
   H     39.81000000    45.50000000    23.23000000
   H     40.29000000    48.35000000    22.44000000
   H     42.27000000    47.82000000    21.34000000
   H     41.99000000    46.09000000    21.54000000
   H     43.11000000    49.23000000    22.95000000
   H     42.49000000    45.05000000    23.70000000
   H     44.64000000    49.34000000    24.92000000
   H     43.85000000    45.19000000    25.79000000
   H     45.95000000    48.11000000    26.37000000
   N     38.97000000    48.08000000    20.37000000
   C     38.35000000    48.07000000    19.06000000
   C     39.47000000    48.31000000    18.05000000
   O     40.39000000    49.09000000    18.28000000
   C     37.37000000    49.24000000    18.98000000
   C     36.39000000    49.29000000    20.15000000
   C     36.55000000    49.25000000    17.69000000
   C     35.58000000    50.56000000    20.32000000
   H     39.12000000    48.98000000    20.80000000
   H     37.86000000    47.11000000    18.87000000
   H     37.84000000    50.21000000    19.10000000
   H     36.96000000    49.26000000    21.08000000
   H     35.76000000    48.41000000    20.22000000
   H     35.91000000    48.38000000    17.54000000
   H     36.01000000    50.20000000    17.73000000
   H     37.20000000    49.20000000    16.82000000
   H     35.10000000    50.67000000    21.29000000
   H     36.30000000    51.37000000    20.45000000
   H     34.78000000    50.68000000    19.58000000
   N     39.36000000    47.55000000    16.96000000
   C     40.25000000    47.56000000    15.83000000
   C     39.57000000    47.81000000    14.49000000
   O     38.35000000    47.93000000    14.49000000
   C     40.97000000    46.21000000    15.74000000
   O     40.16000000    45.10000000    15.46000000
   H     38.59000000    46.89000000    16.90000000
   H     40.89000000    48.43000000    15.98000000
   H     41.52000000    45.94000000    16.64000000
   H     41.64000000    46.22000000    14.88000000
   H     39.93000000    44.75000000    16.33000000
   N     40.22000000    47.84000000    13.32000000
   C     39.64000000    48.31000000    12.08000000
   C     38.66000000    47.29000000    11.52000000
   O     37.54000000    47.66000000    11.14000000
   C     40.77000000    48.67000000    11.12000000
   H     41.22000000    47.76000000    13.44000000
   H     39.06000000    49.22000000    12.21000000
   H     40.32000000    49.15000000    10.24000000
   H     41.41000000    49.45000000    11.53000000
   H     41.44000000    47.89000000    10.76000000
   N     39.01000000    46.01000000    11.61000000
   C     38.18000000    44.86000000    11.31000000
   C     36.92000000    44.80000000    12.16000000
   O     35.81000000    44.60000000    11.68000000
   C     39.09000000    43.66000000    11.53000000
   H     40.01000000    45.91000000    11.75000000
   H     37.91000000    44.87000000    10.25000000
   H     38.48000000    42.75000000    11.43000000
   H     39.83000000    43.59000000    10.73000000
   H     39.58000000    43.71000000    12.50000000
   N     37.07000000    45.00000000    13.48000000
   C     35.99000000    45.06000000    14.45000000
   C     35.06000000    46.26000000    14.34000000
   O     33.87000000    46.15000000    14.65000000
   C     36.52000000    45.04000000    15.88000000
   C     37.26000000    43.76000000    16.25000000
   C     37.92000000    43.92000000    17.61000000
   O     39.12000000    44.27000000    17.70000000
   O     37.26000000    43.50000000    18.58000000
   H     38.04000000    45.09000000    13.73000000
   H     35.32000000    44.21000000    14.32000000
   H     35.73000000    45.21000000    16.62000000
   H     37.25000000    45.85000000    15.91000000
   H     37.93000000    43.55000000    15.42000000
   H     36.55000000    42.94000000    16.23000000
   N     35.54000000    47.44000000    13.95000000
   C     34.79000000    48.62000000    13.56000000
   H     33.85700000    48.65900000    14.12200000
   H     35.37900000    49.51200000    13.77200000
   H     34.56900000    48.57500000    12.49400000
   H     36.54000000    47.51000000    13.85000000
  Ca     39.24000000    43.23000000    20.29000000
   O     41.76000000    44.19000000    19.55000000
   H     42.57000000    43.71000000    19.69000000
   H     42.04000000    45.03000000    19.18000000
   O     40.18000000    41.57000000    18.60000000
   H     40.14000000    41.60000000    17.64000000
   H     40.43000000    40.67000000    18.81000000

Ca 1.00



