%chk=loop3.holoCaM-CaMKII.run86.water2.chk
%nprocshared=20
%mem=10GB
%nosave
#b3lyp/svp scf=(tight,noincore,xqc) Test 
#IOP(5/87=12) Density=Current Pop=(MK,readradii) iop(6/33=2) iop(6/42=6)

loop3.holoCaM-CaMKII.run86.water2 

   0  1 
   C     48.52000000    26.91000000    -3.29000000
   C     47.94000000    25.76000000    -2.48000000
   O     48.62000000    24.79000000    -2.17000000
   H     49.51900000    26.64300000    -3.63500000
   H     47.88000000    27.10800000    -4.15000000
   H     48.57800000    27.80200000    -2.66600000
   N     46.66000000    25.87000000    -2.12000000
   C     45.85000000    24.85000000    -1.49000000
   C     45.46000000    23.88000000    -2.60000000
   O     44.90000000    24.27000000    -3.62000000
   C     44.65000000    25.45000000    -0.77000000
   C     43.78000000    24.55000000     0.09000000
   O     42.97000000    25.02000000     0.92000000
   O     43.85000000    23.34000000    -0.21000000
   H     46.26000000    26.78000000    -2.32000000
   H     46.35000000    24.17000000    -0.80000000
   H     44.05000000    25.94000000    -1.54000000
   H     45.09000000    26.12000000    -0.03000000
   N     45.70000000    22.58000000    -2.44000000
   C     45.37000000    21.54000000    -3.40000000
   C     43.92000000    21.11000000    -3.58000000
   O     43.55000000    20.46000000    -4.55000000
   C     46.26000000    20.37000000    -2.99000000
   C     46.35000000    19.29000000    -4.06000000
   C     47.30000000    18.14000000    -3.74000000
   C     47.60000000    17.37000000    -5.02000000
   N     48.72000000    16.42000000    -4.97000000
   H     46.07000000    22.30000000    -1.54000000
   H     45.80000000    21.81000000    -4.36000000
   H     45.83000000    19.91000000    -2.11000000
   H     47.28000000    20.74000000    -2.91000000
   H     46.81000000    19.80000000    -4.92000000
   H     45.37000000    18.83000000    -4.19000000
   H     46.70000000    17.44000000    -3.16000000
   H     48.19000000    18.43000000    -3.18000000
   H     47.74000000    18.07000000    -5.84000000
   H     46.67000000    16.84000000    -5.23000000
   H     49.59000000    16.93000000    -5.06000000
   H     48.59000000    15.98000000    -4.07000000
   H     48.64000000    15.66000000    -5.62000000
   N     43.09000000    21.51000000    -2.61000000
   C     41.80000000    20.90000000    -2.34000000
   C     40.81000000    21.81000000    -1.64000000
   O     39.60000000    21.58000000    -1.63000000
   C     42.06000000    19.64000000    -1.52000000
   C     42.78000000    20.03000000    -0.23000000
   O     42.09000000    20.60000000     0.64000000
   O     44.00000000    19.85000000    -0.04000000
   H     43.53000000    22.05000000    -1.88000000
   H     41.31000000    20.67000000    -3.29000000
   H     42.73000000    18.95000000    -2.03000000
   H     41.07000000    19.27000000    -1.24000000
   N     41.22000000    22.99000000    -1.17000000
   C     40.39000000    24.08000000    -0.70000000
   C     39.69000000    23.91000000     0.64000000
   O     38.63000000    24.50000000     0.85000000
   H     42.22000000    23.09000000    -1.06000000
   H     39.65000000    24.20000000    -1.49000000
   H     40.89000000    25.05000000    -0.63000000
   N     40.31000000    23.15000000     1.55000000
   C     39.82000000    23.24000000     2.91000000
   C     40.36000000    24.43000000     3.68000000
   O     40.20000000    24.37000000     4.90000000
   C     40.10000000    21.89000000     3.58000000
   C     41.53000000    21.49000000     3.88000000
   N     41.79000000    20.37000000     4.56000000
   O     42.46000000    22.21000000     3.52000000
   H     41.10000000    22.63000000     1.22000000
   H     38.73000000    23.30000000     2.93000000
   H     39.70000000    21.16000000     2.88000000
   H     39.49000000    21.96000000     4.49000000
   H     41.06000000    19.71000000     4.78000000
   H     42.74000000    20.10000000     4.80000000
   N     40.98000000    25.45000000     3.09000000
   C     41.44000000    26.62000000     3.80000000
   C     42.82000000    26.42000000     4.41000000
   O     43.35000000    27.25000000     5.13000000
   H     41.08000000    25.42000000     2.08000000
   H     40.77000000    26.90000000     4.63000000
   H     41.48000000    27.54000000     3.22000000
   N     43.40000000    25.25000000     4.12000000
   C     44.69000000    24.91000000     4.68000000
   C     45.65000000    24.39000000     3.62000000
   O     45.24000000    23.93000000     2.56000000
   C     44.55000000    23.81000000     5.73000000
   C     43.89000000    24.19000000     7.03000000
   C     44.47000000    25.04000000     7.99000000
   C     42.59000000    23.78000000     7.32000000
   C     43.81000000    25.47000000     9.14000000
   C     41.87000000    24.23000000     8.44000000
   C     42.46000000    25.12000000     9.36000000
   O     41.78000000    25.64000000    10.42000000
   H     42.99000000    24.72000000     3.37000000
   H     45.18000000    25.75000000     5.17000000
   H     45.54000000    23.53000000     6.08000000
   H     44.05000000    22.95000000     5.29000000
   H     45.44000000    25.46000000     7.75000000
   H     42.14000000    23.07000000     6.65000000
   H     44.28000000    26.17000000     9.82000000
   H     40.85000000    23.91000000     8.59000000
   H     42.48000000    25.98000000    10.98000000
   N     46.94000000    24.54000000     3.92000000
   C     48.07000000    23.95000000     3.22000000
   C     48.76000000    22.99000000     4.17000000
   O     48.91000000    23.30000000     5.35000000
   C     48.99000000    25.06000000     2.71000000
   C     48.37000000    26.04000000     1.72000000
   C     50.31000000    24.52000000     2.15000000
   C     49.00000000    27.43000000     1.73000000
   H     47.04000000    24.95000000     4.83000000
   H     47.67000000    23.39000000     2.37000000
   H     49.34000000    25.51000000     3.63000000
   H     47.34000000    26.23000000     2.02000000
   H     48.48000000    25.58000000     0.73000000
   H     50.06000000    23.64000000     1.56000000
   H     50.83000000    25.23000000     1.50000000
   H     50.98000000    24.27000000     2.97000000
   H     48.47000000    28.07000000     1.03000000
   H     49.12000000    27.82000000     2.74000000
   H     50.04000000    27.35000000     1.43000000
   N     49.21000000    21.82000000     3.70000000
   C     50.10000000    20.92000000     4.40000000
   C     51.46000000    20.88000000     3.72000000
   O     51.78000000    21.53000000     2.72000000
   C     49.46000000    19.54000000     4.49000000
   O     49.18000000    19.17000000     3.16000000
   H     49.03000000    21.64000000     2.72000000
   H     50.33000000    21.20000000     5.42000000
   H     48.57000000    19.56000000     5.13000000
   H     50.07000000    18.81000000     5.01000000
   H     48.48000000    19.80000000     2.98000000
   N     52.41000000    20.10000000     4.25000000
   C     53.71000000    19.87000000     3.67000000
   C     53.68000000    19.14000000     2.33000000
   O     54.36000000    19.60000000     1.42000000
   C     54.66000000    19.22000000     4.67000000
   H     52.25000000    19.76000000     5.19000000
   H     54.17000000    20.82000000     3.39000000
   H     54.31000000    18.26000000     5.05000000
   H     55.58000000    18.91000000     4.18000000
   H     54.77000000    19.96000000     5.46000000
   N     52.71000000    18.25000000     2.11000000
   C     52.50000000    17.60000000     0.83000000
   C     52.05000000    18.60000000    -0.23000000
   O     52.23000000    18.33000000    -1.41000000
   C     51.48000000    16.46000000     0.88000000
   H     52.26000000    17.80000000     2.89000000
   H     53.50000000    17.22000000     0.62000000
   H     51.49000000    15.91000000    -0.06000000
   H     51.78000000    15.77000000     1.67000000
   H     50.48000000    16.78000000     1.16000000
   N     51.34000000    19.64000000     0.22000000
   C     50.77000000    20.63000000    -0.66000000
   C     51.77000000    21.71000000    -1.03000000
   O     51.80000000    22.15000000    -2.18000000
   C     49.57000000    21.27000000     0.03000000
   C     48.44000000    20.24000000     0.02000000
   C     47.35000000    20.93000000     0.83000000
   O     46.64000000    21.82000000     0.31000000
   O     47.30000000    20.58000000     2.03000000
   H     51.07000000    19.67000000     1.19000000
   H     50.57000000    20.09000000    -1.59000000
   H     49.30000000    22.17000000    -0.53000000
   H     49.77000000    21.51000000     1.07000000
   H     48.77000000    19.35000000     0.55000000
   H     48.15000000    20.05000000    -1.01000000
   N     52.68000000    22.12000000    -0.14000000
   C     53.86000000    22.89000000    -0.48000000
   H     54.68600000    22.21200000    -0.69600000
   H     53.65400000    23.50300000    -1.35800000
   H     54.12900000    23.53300000     0.35800000
   H     52.57000000    21.83000000     0.82000000
  Ca     44.30000000    21.66000000     1.74000000
   O     44.03000000    19.32000000     2.83000000
   H     43.30000000    18.70000000     2.83000000
   H     44.77000000    18.83000000     3.20000000
   O     45.87000000    21.34000000     4.15000000
   H     45.94000000    20.99000000     5.04000000
   H     46.59000000    20.94000000     3.67000000

Ca 1.00



