%chk=loop2.apoCaM-CA-Ng.Init31.run95.water4.chk
%nprocshared=20
%mem=10GB
%nosave
#b3lyp/svp scf=(tight,noincore,xqc) Test 
#IOP(5/87=12) Density=Current Pop=(MK,readradii) iop(6/33=2) iop(6/42=6)

loop2.apoCaM-CA-Ng.Init31.run95.water4 

   -2  1 
   C     40.77000000    49.91000000    19.39000000
   C     40.47000000    48.73000000    20.31000000
   O     39.33000000    48.51000000    20.72000000
   H     41.78500000    49.82000000    19.00300000
   H     40.06400000    49.91200000    18.55900000
   H     40.67600000    50.84100000    19.95000000
   N     41.51000000    48.09000000    20.84000000
   C     42.87000000    48.11000000    20.34000000
   C     43.87000000    47.60000000    21.36000000
   O     43.93000000    46.40000000    21.60000000
   C     43.01000000    47.35000000    19.03000000
   C     42.38000000    45.96000000    18.99000000
   O     41.60000000    45.64000000    19.91000000
   O     42.65000000    45.13000000    18.09000000
   H     41.40000000    47.61000000    21.73000000
   H     43.24000000    49.12000000    20.16000000
   H     44.08000000    47.26000000    18.84000000
   H     42.54000000    47.94000000    18.23000000
   N     44.62000000    48.56000000    21.91000000
   C     45.77000000    48.41000000    22.78000000
   C     45.41000000    47.57000000    23.99000000
   O     46.14000000    46.69000000    24.44000000
   C     46.27000000    49.74000000    23.33000000
   H     44.40000000    49.52000000    21.67000000
   H     46.61000000    47.94000000    22.27000000
   H     45.48000000    50.26000000    23.87000000
   H     47.10000000    49.58000000    24.02000000
   H     46.60000000    50.38000000    22.51000000
   N     44.17000000    47.71000000    24.48000000
   C     43.68000000    47.17000000    25.73000000
   C     43.27000000    45.72000000    25.47000000
   O     42.79000000    45.34000000    24.41000000
   C     42.60000000    48.09000000    26.30000000
   C     41.22000000    48.20000000    25.67000000
   O     41.16000000    48.38000000    24.43000000
   O     40.24000000    48.04000000    26.42000000
   H     43.62000000    48.45000000    24.06000000
   H     44.51000000    47.15000000    26.42000000
   H     43.08000000    49.07000000    26.32000000
   H     42.50000000    47.86000000    27.36000000
   N     43.22000000    44.89000000    26.52000000
   C     42.85000000    43.49000000    26.43000000
   C     41.40000000    43.27000000    26.83000000
   O     40.89000000    43.87000000    27.78000000
   H     43.40000000    45.25000000    27.45000000
   H     43.53000000    42.91000000    27.05000000
   H     42.96000000    43.21000000    25.38000000
   N     40.69000000    42.31000000    26.25000000
   C     39.26000000    42.06000000    26.32000000
   C     39.00000000    40.80000000    27.14000000
   O     38.32000000    39.89000000    26.69000000
   C     38.77000000    41.96000000    24.88000000
   C     39.06000000    43.17000000    24.01000000
   N     37.99000000    43.75000000    23.46000000
   O     40.20000000    43.59000000    23.79000000
   H     41.15000000    41.77000000    25.53000000
   H     38.76000000    42.85000000    26.88000000
   H     37.69000000    41.82000000    24.84000000
   H     39.20000000    41.05000000    24.45000000
   H     37.10000000    43.41000000    23.79000000
   H     38.09000000    44.57000000    22.88000000
   N     39.53000000    40.80000000    28.37000000
   C     39.34000000    39.74000000    29.34000000
   C     40.22000000    38.53000000    29.03000000
   O     40.47000000    38.15000000    27.89000000
   H     40.03000000    41.65000000    28.58000000
   H     38.30000000    39.43000000    29.44000000
   H     39.64000000    40.16000000    30.30000000
   N     40.73000000    37.82000000    30.05000000
   C     40.47000000    37.99000000    31.46000000
   C     41.32000000    39.09000000    32.06000000
   O     40.72000000    39.87000000    32.80000000
   C     40.66000000    36.67000000    32.21000000
   C     39.94000000    36.70000000    33.55000000
   O     39.97000000    35.61000000    31.57000000
   H     41.18000000    36.95000000    29.83000000
   H     39.42000000    38.27000000    31.55000000
   H     41.70000000    36.39000000    32.34000000
   H     40.20000000    34.83000000    32.08000000
   H     38.87000000    36.84000000    33.43000000
   H     40.23000000    35.77000000    34.04000000
   H     40.24000000    37.57000000    34.14000000
   N     42.60000000    39.23000000    31.69000000
   C     43.50000000    40.17000000    32.32000000
   C     43.57000000    40.08000000    33.83000000
   O     43.16000000    41.03000000    34.49000000
   C     43.36000000    41.57000000    31.71000000
   C     43.20000000    41.61000000    30.19000000
   C     44.56000000    42.44000000    32.04000000
   C     44.16000000    40.76000000    29.38000000
   H     42.95000000    38.62000000    30.97000000
   H     44.51000000    39.93000000    32.00000000
   H     42.49000000    42.00000000    32.21000000
   H     43.28000000    42.64000000    29.84000000
   H     42.18000000    41.38000000    29.90000000
   H     44.54000000    43.36000000    31.46000000
   H     44.69000000    42.63000000    33.11000000
   H     45.42000000    41.95000000    31.60000000
   H     44.09000000    39.74000000    29.76000000
   H     43.88000000    40.85000000    28.33000000
   H     45.23000000    40.95000000    29.33000000
   N     44.18000000    39.06000000    34.44000000
   C     44.93000000    37.99000000    33.81000000
   C     46.41000000    38.35000000    33.79000000
   O     47.06000000    38.18000000    32.75000000
   C     44.58000000    36.70000000    34.55000000
   C     44.83000000    36.68000000    36.05000000
   O     45.60000000    35.80000000    36.50000000
   O     44.54000000    37.62000000    36.82000000
   H     43.94000000    38.88000000    35.40000000
   H     44.60000000    37.80000000    32.79000000
   H     45.21000000    35.90000000    34.14000000
   H     43.57000000    36.38000000    34.29000000
   N     47.06000000    38.69000000    34.90000000
   C     48.41000000    39.22000000    34.95000000
   C     49.05000000    38.78000000    36.26000000
   O     48.33000000    38.20000000    37.08000000
   C     48.38000000    40.73000000    34.73000000
   C     47.71000000    41.60000000    35.77000000
   C     48.45000000    42.55000000    36.47000000
   C     46.33000000    41.53000000    35.99000000
   C     47.86000000    43.30000000    37.50000000
   C     45.71000000    42.23000000    37.03000000
   C     46.48000000    43.17000000    37.72000000
   H     46.51000000    38.69000000    35.75000000
   H     48.90000000    38.75000000    34.09000000
   H     47.77000000    40.91000000    33.84000000
   H     49.37000000    41.15000000    34.58000000
   H     49.51000000    42.65000000    36.30000000
   H     45.69000000    40.92000000    35.36000000
   H     48.42000000    44.09000000    37.98000000
   H     44.67000000    41.98000000    37.21000000
   H     46.06000000    43.74000000    38.54000000
   N     50.36000000    38.89000000    36.46000000
   C     51.37000000    39.45000000    35.59000000
   C     51.56000000    38.70000000    34.27000000
   O     50.96000000    37.64000000    34.12000000
   C     52.69000000    39.43000000    36.35000000
   C     52.21000000    39.47000000    37.80000000
   C     50.98000000    38.56000000    37.73000000
   H     51.18000000    40.52000000    35.51000000
   H     53.22000000    38.52000000    36.06000000
   H     53.33000000    40.29000000    36.16000000
   H     52.94000000    38.93000000    38.41000000
   H     51.92000000    40.46000000    38.15000000
   H     51.29000000    37.52000000    37.67000000
   H     50.39000000    38.64000000    38.64000000
   N     52.35000000    39.26000000    33.36000000
   C     52.77000000    38.62000000    32.12000000
   C     52.72000000    39.41000000    30.82000000
   O     53.22000000    38.92000000    29.81000000
   C     54.11000000    37.94000000    32.38000000
   C     54.14000000    36.80000000    33.38000000
   C     55.55000000    36.23000000    33.54000000
   O     55.66000000    34.98000000    33.61000000
   O     56.53000000    36.98000000    33.72000000
   H     52.83000000    40.10000000    33.66000000
   H     52.13000000    37.76000000    31.89000000
   H     54.87000000    38.67000000    32.66000000
   H     54.44000000    37.57000000    31.40000000
   H     53.43000000    35.99000000    33.21000000
   H     53.95000000    37.24000000    34.36000000
   N     52.16000000    40.60000000    30.64000000
   C     51.17000000    41.37000000    31.37000000
   H     50.24600000    40.79600000    31.44300000
   H     51.54300000    41.58600000    32.37100000
   H     50.97600000    42.30500000    30.84400000
   H     52.16000000    40.82000000    29.65000000
  Ca     42.15000000    44.41000000    22.12000000
   O     40.38000000    46.32000000    22.87000000
   H     40.43000000    46.96000000    23.58000000
   H     39.62000000    46.57000000    22.36000000
   O     40.10000000    42.84000000    20.83000000
   H     39.40000000    43.27000000    20.34000000
   H     39.69000000    42.05000000    21.18000000
   O     43.70000000    43.19000000    20.33000000
   H     43.11000000    42.84000000    19.67000000
   H     44.35000000    42.50000000    20.47000000
   O     42.79000000    41.86000000    22.96000000
   H     42.28000000    41.06000000    22.97000000
   H     43.69000000    41.58000000    23.11000000

Ca 1.00



