%chk=loop2.apoCaM-CA-Ng.Init293.run58.water5.chk
%nprocshared=20
%mem=10GB
%nosave
#b3lyp/svp scf=(tight,noincore,xqc) Test 
#IOP(5/87=12) Density=Current Pop=(MK,readradii) iop(6/33=2) iop(6/42=6)

loop2.apoCaM-CA-Ng.Init293.run58.water5 

   -2  1 
   C     71.90000000    94.35000000    90.90000000
   C     73.37000000    94.54000000    91.22000000
   O     73.83000000    94.14000000    92.29000000
   H     71.35300000    95.25800000    91.15500000
   H     71.78300000    94.14200000    89.83600000
   H     71.50600000    93.51500000    91.47900000
   N     74.13000000    95.25000000    90.37000000
   C     75.49000000    95.65000000    90.64000000
   C     75.75000000    96.37000000    91.95000000
   O     76.73000000    96.14000000    92.65000000
   C     75.83000000    96.61000000    89.51000000
   C     77.30000000    97.01000000    89.54000000
   O     78.17000000    96.12000000    89.44000000
   O     77.63000000    98.21000000    89.60000000
   H     73.61000000    95.60000000    89.58000000
   H     76.22000000    94.84000000    90.53000000
   H     75.15000000    97.46000000    89.53000000
   H     75.59000000    96.11000000    88.57000000
   N     74.80000000    97.14000000    92.49000000
   C     74.81000000    97.79000000    93.79000000
   C     75.06000000    96.84000000    94.94000000
   O     75.71000000    97.25000000    95.90000000
   C     75.69000000    99.03000000    93.65000000
   H     73.91000000    97.28000000    92.03000000
   H     73.78000000    98.13000000    93.92000000
   H     75.31000000    99.79000000    92.97000000
   H     75.83000000    99.49000000    94.63000000
   H     76.67000000    98.81000000    93.22000000
   N     74.60000000    95.59000000    94.84000000
   C     74.32000000    94.69000000    95.94000000
   C     75.52000000    94.40000000    96.83000000
   O     75.39000000    94.02000000    97.99000000
   C     73.05000000    95.03000000    96.71000000
   C     72.01000000    95.89000000    96.01000000
   O     71.94000000    97.14000000    96.01000000
   O     71.12000000    95.44000000    95.25000000
   H     74.18000000    95.43000000    93.93000000
   H     74.06000000    93.73000000    95.49000000
   H     73.37000000    95.57000000    97.60000000
   H     72.50000000    94.13000000    97.00000000
   N     76.68000000    94.54000000    96.19000000
   C     78.03000000    94.31000000    96.67000000
   C     78.42000000    92.89000000    97.04000000
   O     77.60000000    91.98000000    96.97000000
   H     76.68000000    94.91000000    95.25000000
   H     78.41000000    94.96000000    97.46000000
   H     78.62000000    94.55000000    95.78000000
   N     79.59000000    92.75000000    97.67000000
   C     80.12000000    91.52000000    98.23000000
   C     80.02000000    90.26000000    97.39000000
   O     80.05000000    89.19000000    98.00000000
   C     79.52000000    91.37000000    99.63000000
   C     79.61000000    92.63000000   100.48000000
   N     78.42000000    93.15000000   100.83000000
   O     80.62000000    93.22000000   100.83000000
   H     80.22000000    93.54000000    97.65000000
   H     81.18000000    91.64000000    98.43000000
   H     80.11000000    90.63000000   100.17000000
   H     78.50000000    90.97000000    99.59000000
   H     77.59000000    92.72000000   100.46000000
   H     78.42000000    94.09000000   101.18000000
   N     79.84000000    90.38000000    96.08000000
   C     79.76000000    89.20000000    95.23000000
   C     78.48000000    89.15000000    94.42000000
   O     78.36000000    88.22000000    93.62000000
   H     79.96000000    91.23000000    95.55000000
   H     79.83000000    88.27000000    95.80000000
   H     80.57000000    89.24000000    94.50000000
   N     77.56000000    90.11000000    94.51000000
   C     76.34000000    90.11000000    93.71000000
   C     75.31000000    89.12000000    94.21000000
   O     75.43000000    88.62000000    95.33000000
   C     75.79000000    91.53000000    93.68000000
   C     76.78000000    92.51000000    93.05000000
   O     74.56000000    91.60000000    93.00000000
   H     77.60000000    90.84000000    95.20000000
   H     76.64000000    89.75000000    92.73000000
   H     75.64000000    91.84000000    94.72000000
   H     74.43000000    92.52000000    92.78000000
   H     76.38000000    93.53000000    93.13000000
   H     77.76000000    92.49000000    93.53000000
   H     76.86000000    92.19000000    92.01000000
   N     74.26000000    88.81000000    93.45000000
   C     73.33000000    87.73000000    93.71000000
   C     72.57000000    87.95000000    95.01000000
   O     72.54000000    89.07000000    95.50000000
   C     72.39000000    87.35000000    92.57000000
   C     71.62000000    88.60000000    92.15000000
   C     73.18000000    86.81000000    91.39000000
   C     70.59000000    88.31000000    91.06000000
   H     74.30000000    89.25000000    92.54000000
   H     73.91000000    86.83000000    93.93000000
   H     71.69000000    86.59000000    92.89000000
   H     72.31000000    89.34000000    91.74000000
   H     71.12000000    89.03000000    93.01000000
   H     73.74000000    87.55000000    90.81000000
   H     73.80000000    85.99000000    91.75000000
   H     72.54000000    86.22000000    90.73000000
   H     70.08000000    89.26000000    90.95000000
   H     71.11000000    87.91000000    90.18000000
   H     69.90000000    87.53000000    91.39000000
   N     71.91000000    86.96000000    95.62000000
   C     71.16000000    87.01000000    96.86000000
   C     72.14000000    86.72000000    97.99000000
   O     72.04000000    85.72000000    98.71000000
   C     70.00000000    86.02000000    96.81000000
   C     69.10000000    85.87000000    98.03000000
   O     68.60000000    84.78000000    98.37000000
   O     68.81000000    86.92000000    98.65000000
   H     71.98000000    86.03000000    95.22000000
   H     70.83000000    88.05000000    96.97000000
   H     70.44000000    85.03000000    96.71000000
   H     69.37000000    86.14000000    95.93000000
   N     73.31000000    87.35000000    97.92000000
   C     74.38000000    87.38000000    98.90000000
   C     75.11000000    86.05000000    99.04000000
   O     75.09000000    85.49000000   100.13000000
   C     75.22000000    88.61000000    98.59000000
   C     76.27000000    88.85000000    99.66000000
   C     77.53000000    88.25000000    99.65000000
   C     75.94000000    89.71000000   100.71000000
   C     78.41000000    88.49000000   100.72000000
   C     76.77000000    89.82000000   101.83000000
   C     78.01000000    89.19000000   101.86000000
   H     73.43000000    87.95000000    97.12000000
   H     73.96000000    87.55000000    99.89000000
   H     74.77000000    89.52000000    98.20000000
   H     75.81000000    88.38000000    97.70000000
   H     77.82000000    87.60000000    98.83000000
   H     74.96000000    90.17000000   100.69000000
   H     79.42000000    88.10000000   100.65000000
   H     76.53000000    90.55000000   102.59000000
   H     78.73000000    89.43000000   102.64000000
   N     75.67000000    85.38000000    98.02000000
   C     75.59000000    85.56000000    96.59000000
   C     74.71000000    84.59000000    95.82000000
   O     74.66000000    84.44000000    94.60000000
   C     77.06000000    85.46000000    96.17000000
   C     77.53000000    84.29000000    97.03000000
   C     76.72000000    84.43000000    98.32000000
   H     75.19000000    86.55000000    96.38000000
   H     77.22000000    85.18000000    95.12000000
   H     77.63000000    86.34000000    96.46000000
   H     77.29000000    83.34000000    96.55000000
   H     78.61000000    84.35000000    97.15000000
   H     76.27000000    83.56000000    98.79000000
   H     77.21000000    85.01000000    99.10000000
   N     73.92000000    83.80000000    96.57000000
   C     73.00000000    82.75000000    96.18000000
   C     72.01000000    83.11000000    95.08000000
   O     71.66000000    84.28000000    94.94000000
   C     72.31000000    82.20000000    97.43000000
   C     71.78000000    80.79000000    97.17000000
   C     71.15000000    80.18000000    98.41000000
   O     69.92000000    80.18000000    98.64000000
   O     71.94000000    79.79000000    99.29000000
   H     73.93000000    83.97000000    97.56000000
   H     73.56000000    81.91000000    95.80000000
   H     71.56000000    82.90000000    97.78000000
   H     73.05000000    82.18000000    98.23000000
   H     72.68000000    80.25000000    96.86000000
   H     71.05000000    80.73000000    96.37000000
   N     71.51000000    82.14000000    94.30000000
   C     70.40000000    82.31000000    93.38000000
   H     69.58500000    82.82700000    93.88700000
   H     70.72500000    82.89800000    92.52200000
   H     70.05500000    81.33300000    93.04100000
   H     71.99000000    81.28000000    94.52000000
  Ca     69.38000000    97.36000000    95.26000000
   O     69.81000000    99.53000000    96.93000000
   H     70.71000000    99.74000000    97.19000000
   H     69.45000000   100.37000000    96.64000000
   O     67.70000000    95.01000000    95.41000000
   H     66.80000000    94.94000000    95.09000000
   H     67.91000000    94.14000000    95.75000000
   O     69.16000000    96.48000000    97.73000000
   H     69.66000000    96.68000000    98.53000000
   H     68.27000000    96.30000000    98.05000000
   O     67.10000000    98.32000000    96.42000000
   H     66.53000000    98.90000000    96.92000000
   H     66.51000000    97.63000000    96.10000000
   O     68.71000000    99.81800000    94.24000000
   H     68.73000000   100.73800000    94.50000000
   H     68.17000000    99.79800000    93.45000000

Ca 1.00



