%chk=loop4.apoCaM-CA-Ng.Init31.run27.water3.chk
%nprocshared=20
%mem=10GB
%nosave
#b3lyp/svp scf=(tight,noincore,xqc) Test 
#IOP(5/87=12) Density=Current Pop=(MK,readradii) iop(6/33=2) iop(6/42=6)

loop4.apoCaM-CA-Ng.Init31.run27.water3 

   -3  1 
   C     90.92000000    37.83000000    87.16000000
   C     92.17000000    37.17000000    87.74000000
   O     93.19000000    37.86000000    87.77000000
   H     90.13500000    37.84600000    87.91600000
   H     91.15400000    38.85100000    86.85800000
   H     90.57800000    37.26400000    86.29400000
   N     92.26000000    35.93000000    88.22000000
   C     91.32000000    34.96000000    88.75000000
   C     91.41000000    34.85000000    90.27000000
   O     90.32000000    34.70000000    90.83000000
   C     91.58000000    33.60000000    88.12000000
   C     91.60000000    33.66000000    86.60000000
   O     92.42000000    32.99000000    85.94000000
   O     90.78000000    34.33000000    85.94000000
   H     93.23000000    35.73000000    88.41000000
   H     90.30000000    35.27000000    88.55000000
   H     90.84000000    32.87000000    88.47000000
   H     92.57000000    33.26000000    88.42000000
   N     92.59000000    34.88000000    90.89000000
   C     92.81000000    35.15000000    92.30000000
   C     93.91000000    34.32000000    92.95000000
   O     93.78000000    33.90000000    94.10000000
   C     93.06000000    36.64000000    92.54000000
   C     92.96000000    37.16000000    93.97000000
   C     94.29000000    37.26000000    91.88000000
   C     91.68000000    37.03000000    94.80000000
   H     93.36000000    35.06000000    90.25000000
   H     91.93000000    34.92000000    92.88000000
   H     92.19000000    37.05000000    92.02000000
   H     93.25000000    38.21000000    94.02000000
   H     93.77000000    36.75000000    94.56000000
   H     94.38000000    36.94000000    90.84000000
   H     94.23000000    38.35000000    91.93000000
   H     95.11000000    36.89000000    92.48000000
   H     91.19000000    36.08000000    94.61000000
   H     91.83000000    37.03000000    95.88000000
   H     90.99000000    37.81000000    94.49000000
   N     94.94000000    33.90000000    92.22000000
   C     96.07000000    33.15000000    92.71000000
   C     96.78000000    32.42000000    91.57000000
   O     96.79000000    32.80000000    90.40000000
   C     97.02000000    34.13000000    93.39000000
   C     97.96000000    33.52000000    94.41000000
   O     98.82000000    34.25000000    94.96000000
   O     97.92000000    32.29000000    94.63000000
   H     94.97000000    34.17000000    91.24000000
   H     95.71000000    32.39000000    93.40000000
   H     96.39000000    34.90000000    93.84000000
   H     97.58000000    34.69000000    92.64000000
   N     97.41000000    31.33000000    92.00000000
   C     98.14000000    30.40000000    91.16000000
   C     99.41000000    31.07000000    90.65000000
   O     99.92000000    32.08000000    91.13000000
   H     97.73000000    31.33000000    92.95000000
   H     97.48000000    30.02000000    90.38000000
   H     98.41000000    29.54000000    91.77000000
   N     99.89000000    30.45000000    89.56000000
   C    101.01000000    30.76000000    88.70000000
   C    101.85000000    29.57000000    88.24000000
   O    101.41000000    28.43000000    88.37000000
   C    100.47000000    31.55000000    87.51000000
   C     99.34000000    30.95000000    86.69000000
   O     99.65000000    30.36000000    85.63000000
   O     98.16000000    31.08000000    87.07000000
   H     99.23000000    29.78000000    89.21000000
   H    101.58000000    31.47000000    89.30000000
   H    101.25000000    31.74000000    86.78000000
   H    100.10000000    32.54000000    87.81000000
   N    103.07000000    29.74000000    87.73000000
   C    103.88000000    30.94000000    87.74000000
   C    104.29000000    31.36000000    89.14000000
   O    103.97000000    30.65000000    90.09000000
   H    103.52000000    28.85000000    87.59000000
   H    103.27000000    31.73000000    87.30000000
   H    104.84000000    30.74000000    87.25000000
   N    104.84000000    32.55000000    89.41000000
   C    104.91000000    33.75000000    88.61000000
   C    103.52000000    34.22000000    88.23000000
   O    102.50000000    33.57000000    88.45000000
   C    105.81000000    33.60000000    87.39000000
   C    107.18000000    33.05000000    87.77000000
   C    108.03000000    33.92000000    88.69000000
   N    108.58000000    33.33000000    89.75000000
   O    108.26000000    35.10000000    88.45000000
   H    104.99000000    32.72000000    90.40000000
   H    105.23000000    34.59000000    89.22000000
   H    105.99000000    34.59000000    86.97000000
   H    105.45000000    32.97000000    86.57000000
   H    107.80000000    32.92000000    86.88000000
   H    107.11000000    32.07000000    88.25000000
   H    108.34000000    32.41000000    90.09000000
   H    109.26000000    33.85000000    90.29000000
   N    103.38000000    35.47000000    87.78000000
   C    102.13000000    36.15000000    87.50000000
   C    102.08000000    37.45000000    88.29000000
   O    103.12000000    38.09000000    88.48000000
   C    101.96000000    36.48000000    86.02000000
   C    101.51000000    35.22000000    85.28000000
   C    103.14000000    37.11000000    85.30000000
   H    104.24000000    36.00000000    87.73000000
   H    101.26000000    35.53000000    87.72000000
   H    101.14000000    37.20000000    85.92000000
   H    102.41000000    34.62000000    85.28000000
   H    100.61000000    34.73000000    85.65000000
   H    101.18000000    35.47000000    84.27000000
   H    103.87000000    36.33000000    85.06000000
   H    102.80000000    37.44000000    84.32000000
   H    103.45000000    38.01000000    85.82000000
   N    100.91000000    38.03000000    88.56000000
   C    100.69000000    39.37000000    89.07000000
   C    100.84000000    40.36000000    87.92000000
   O    100.67000000    41.57000000    88.10000000
   C     99.36000000    39.56000000    89.80000000
   C     99.27000000    38.59000000    90.97000000
   N     98.98000000    39.13000000    92.16000000
   O     99.41000000    37.38000000    90.79000000
   H    100.04000000    37.56000000    88.34000000
   H    101.58000000    39.45000000    89.68000000
   H     98.47000000    39.38000000    89.19000000
   H     99.32000000    40.58000000    90.15000000
   H     98.93000000    40.13000000    92.27000000
   H     99.01000000    38.54000000    92.98000000
   N    100.97000000    39.93000000    86.67000000
   C    101.04000000    40.85000000    85.55000000
   C    100.29000000    40.13000000    84.44000000
   O    100.25000000    38.90000000    84.33000000
   C    102.50000000    41.08000000    85.19000000
   C    102.77000000    42.00000000    84.02000000
   C    103.84000000    41.75000000    83.17000000
   C    101.93000000    43.10000000    83.79000000
   C    104.09000000    42.60000000    82.08000000
   C    102.09000000    43.94000000    82.68000000
   C    103.22000000    43.69000000    81.86000000
   O    103.43000000    44.46000000    80.76000000
   H    101.04000000    38.94000000    86.50000000
   H    100.51000000    41.76000000    85.82000000
   H    102.89000000    40.06000000    85.15000000
   H    103.03000000    41.48000000    86.05000000
   H    104.54000000    40.94000000    83.27000000
   H    101.19000000    43.40000000    84.52000000
   H    104.98000000    42.43000000    81.49000000
   H    101.35000000    44.72000000    82.55000000
   H    102.71000000    45.10000000    80.77000000
   N     99.78000000    40.90000000    83.48000000
   C     99.01000000    40.48000000    82.32000000
   C     97.57000000    40.93000000    82.52000000
   O     97.27000000    42.12000000    82.48000000
   C     99.69000000    40.97000000    81.04000000
   C    101.11000000    40.50000000    80.73000000
   C    101.53000000    40.88000000    79.32000000
   O    100.80000000    41.67000000    78.68000000
   O    102.49000000    40.31000000    78.75000000
   H     99.97000000    41.89000000    83.54000000
   H     99.03000000    39.40000000    82.21000000
   H     99.68000000    42.06000000    81.03000000
   H     99.02000000    40.69000000    80.23000000
   H    101.19000000    39.42000000    80.84000000
   H    101.81000000    40.82000000    81.50000000
   N     96.68000000    39.94000000    82.64000000
   C     95.28000000    40.13000000    82.97000000
   C     94.98000000    40.69000000    84.35000000
   O     93.84000000    41.12000000    84.54000000
   C     94.46000000    38.87000000    82.66000000
   C     94.97000000    37.67000000    83.45000000
   C     93.99000000    36.51000000    83.43000000
   O     93.62000000    35.98000000    82.35000000
   O     93.67000000    36.03000000    84.54000000
   H     97.08000000    39.02000000    82.58000000
   H     94.97000000    40.87000000    82.23000000
   H     94.58000000    38.68000000    81.60000000
   H     93.45000000    39.04000000    83.02000000
   H     95.19000000    37.99000000    84.47000000
   H     95.86000000    37.22000000    83.00000000
   N     95.96000000    40.81000000    85.24000000
   C     95.82000000    41.44000000    86.54000000
   H     94.76500000    41.48400000    86.81000000
   H     96.36100000    40.85900000    87.28600000
   H     96.22700000    42.45000000    86.50000000
   H     96.79000000    40.31000000    84.95000000
  Ca     91.79000000    34.32000000    83.64000000
   O     91.36000000    33.51000000    81.16000000
   H     92.08000000    33.52000000    80.53000000
   H     90.62000000    33.14000000    80.67000000
   O     90.42000000    31.99000000    83.51000000
   H     90.44000000    31.25000000    84.12000000
   H     89.79000000    31.74000000    82.84000000
   O     94.05000000    32.86000000    83.44000000
   H     94.41000000    32.34000000    84.15000000
   H     94.41000000    32.48000000    82.64000000

Ca 1.00



