%chk=loop1.holoCaM.run56.water2.chk
%nprocshared=20
%mem=10GB
%nosave
#b3lyp/svp scf=(tight,noincore,xqc) Test 
#IOP(5/87=12) Density=Current Pop=(MK,readradii) iop(6/33=2) iop(6/42=6)

loop1.holoCaM.run56.water2 

   0  1 
   C     44.03000000    72.76000000    76.39300000
   C     42.98000000    71.66000000    76.45300000
   O     42.86000000    70.82000000    75.56300000
   H     44.92700000    72.37900000    75.90500000
   H     43.64000000    73.60500000    75.82600000
   H     44.27700000    73.08300000    77.40400000
   N     42.01000000    71.79000000    77.37300000
   C     40.65000000    71.36000000    77.10300000
   C     39.95000000    72.31000000    76.14300000
   O     40.04000000    73.53000000    76.24300000
   C     39.91000000    71.11000000    78.41300000
   C     38.43000000    70.79000000    78.22300000
   O     37.59000000    71.22000000    79.04300000
   O     38.12000000    70.10000000    77.22300000
   H     42.14000000    72.52000000    78.05300000
   H     40.75000000    70.46000000    76.49300000
   H     39.90000000    72.03000000    78.98300000
   H     40.49000000    70.37000000    78.95300000
   N     39.28000000    71.78000000    75.12300000
   C     38.68000000    72.44000000    73.97300000
   C     37.15000000    72.44000000    73.94300000
   O     36.55000000    73.01000000    73.03300000
   C     39.33000000    71.85000000    72.72300000
   C     40.85000000    71.98000000    72.59300000
   C     41.32000000    73.42000000    72.46300000
   C     42.84000000    73.46000000    72.43300000
   N     43.17000000    74.88000000    72.56300000
   H     39.22000000    70.78000000    75.02300000
   H     38.93000000    73.50000000    73.94300000
   H     38.84000000    72.33000000    71.88300000
   H     38.99000000    70.83000000    72.56300000
   H     41.37000000    71.43000000    71.81300000
   H     41.33000000    71.41000000    73.39300000
   H     40.93000000    74.10000000    73.22300000
   H     40.97000000    73.87000000    71.52300000
   H     43.30000000    73.04000000    71.54300000
   H     43.32000000    72.93000000    73.26300000
   H     42.86000000    75.28000000    73.44300000
   H     44.17000000    75.05000000    72.52300000
   H     42.84000000    75.48000000    71.81300000
   N     36.49000000    71.77000000    74.88300000
   C     35.05000000    71.64000000    74.97300000
   C     34.40000000    71.81000000    76.33300000
   O     33.17000000    71.85000000    76.40300000
   C     34.65000000    70.39000000    74.19300000
   C     35.33000000    69.13000000    74.70300000
   O     35.49000000    68.17000000    73.92300000
   O     35.69000000    69.00000000    75.90300000
   H     37.03000000    71.14000000    75.45300000
   H     34.66000000    72.46000000    74.36300000
   H     34.93000000    70.61000000    73.16300000
   H     33.56000000    70.35000000    74.20300000
   N     35.12000000    72.03000000    77.43300000
   C     34.50000000    72.33000000    78.70300000
   C     34.01000000    71.15000000    79.53300000
   O     33.23000000    71.28000000    80.47300000
   H     36.13000000    72.02000000    77.34300000
   H     33.67000000    73.01000000    78.51300000
   H     35.18000000    72.83000000    79.39300000
   N     34.41000000    69.92000000    79.18300000
   C     34.16000000    68.74000000    79.98300000
   C     35.03000000    68.60000000    81.22300000
   O     34.75000000    67.87000000    82.17300000
   C     34.15000000    67.48000000    79.13300000
   C     35.52000000    67.13000000    78.57300000
   O     35.57000000    66.47000000    77.51300000
   O     36.57000000    67.64000000    79.03300000
   H     35.03000000    69.90000000    78.38300000
   H     33.17000000    68.86000000    80.42300000
   H     33.37000000    67.52000000    78.37300000
   H     33.85000000    66.66000000    79.79300000
   N     36.09000000    69.40000000    81.40300000
   C     36.96000000    69.35000000    82.56300000
   C     38.04000000    68.29000000    82.41300000
   O     38.52000000    67.83000000    83.44300000
   H     36.32000000    69.98000000    80.61300000
   H     36.35000000    69.04000000    83.41300000
   H     37.49000000    70.29000000    82.65300000
   N     38.30000000    67.79000000    81.19300000
   C     39.32000000    66.79000000    80.98300000
   C     39.96000000    67.02000000    79.61300000
   O     39.38000000    67.73000000    78.78300000
   C     38.76000000    65.38000000    81.11300000
   C     38.01000000    65.21000000    82.43300000
   O     37.88000000    64.97000000    80.09300000
   H     37.91000000    68.31000000    80.42300000
   H     40.16000000    66.94000000    81.66300000
   H     39.51000000    64.61000000    80.97300000
   H     37.11000000    65.54000000    80.03300000
   H     38.65000000    65.48000000    83.27300000
   H     37.13000000    65.86000000    82.41300000
   H     37.70000000    64.17000000    82.56300000
   N     41.00000000    66.24000000    79.32300000
   C     41.65000000    66.21000000    78.02300000
   C     41.63000000    64.78000000    77.50300000
   O     41.78000000    63.81000000    78.24300000
   C     42.98000000    66.95000000    78.15300000
   C     42.76000000    68.42000000    78.49300000
   C     43.70000000    66.92000000    76.80300000
   C     44.01000000    69.28000000    78.67300000
   H     41.40000000    65.69000000    80.07300000
   H     41.01000000    66.87000000    77.43300000
   H     43.57000000    66.38000000    78.85300000
   H     42.28000000    68.51000000    79.47300000
   H     42.16000000    68.92000000    77.72300000
   H     43.79000000    65.86000000    76.55300000
   H     43.23000000    67.49000000    76.01300000
   H     44.69000000    67.35000000    76.95300000
   H     43.69000000    70.13000000    79.27300000
   H     44.82000000    68.66000000    79.03300000
   H     44.36000000    69.68000000    77.72300000
   N     41.37000000    64.71000000    76.19300000
   C     41.47000000    63.44000000    75.49300000
   C     42.52000000    63.39000000    74.39300000
   O     43.16000000    64.40000000    74.11300000
   C     40.07000000    63.08000000    75.01300000
   C     39.40000000    64.07000000    74.05300000
   O     40.12000000    61.79000000    74.46300000
   H     41.28000000    65.53000000    75.62300000
   H     41.73000000    62.67000000    76.20300000
   H     39.35000000    62.86000000    75.80300000
   H     39.23000000    61.75000000    74.12300000
   H     38.32000000    63.90000000    74.11300000
   H     39.60000000    65.09000000    74.35300000
   H     39.76000000    63.97000000    73.02300000
   N     42.79000000    62.25000000    73.75300000
   C     43.86000000    62.09000000    72.78300000
   C     43.75000000    63.01000000    71.57300000
   O     44.76000000    63.30000000    70.94300000
   C     44.01000000    60.66000000    72.26300000
   C     44.57000000    59.56000000    73.16300000
   O     42.70000000    60.32000000    71.87300000
   H     42.19000000    61.44000000    73.76300000
   H     44.81000000    62.34000000    73.25300000
   H     44.74000000    60.76000000    71.46300000
   H     42.74000000    59.54000000    71.30300000
   H     43.88000000    59.53000000    74.00300000
   H     44.84000000    58.63000000    72.65300000
   H     45.50000000    59.96000000    73.58300000
   N     42.52000000    63.39000000    71.19300000
   C     42.14000000    64.26000000    70.10300000
   C     42.53000000    65.71000000    70.36300000
   O     42.66000000    66.52000000    69.45300000
   C     40.66000000    64.08000000    69.80300000
   C     40.05000000    62.68000000    69.99300000
   C     40.72000000    61.70000000    69.03300000
   C     40.32000000    60.22000000    69.02300000
   N     41.00000000    59.47000000    67.96300000
   H     41.80000000    63.08000000    71.82300000
   H     42.67000000    63.94000000    69.20300000
   H     40.21000000    64.58000000    68.95300000
   H     40.21000000    64.70000000    70.58300000
   H     38.97000000    62.71000000    69.87300000
   H     40.14000000    62.24000000    70.98300000
   H     41.81000000    61.70000000    69.13300000
   H     40.51000000    61.94000000    67.99300000
   H     39.23000000    60.20000000    68.90300000
   H     40.38000000    59.79000000    70.02300000
   H     40.79000000    58.50000000    68.15300000
   H     40.57000000    59.63000000    67.06300000
   H     42.00000000    59.62000000    67.95300000
   N     42.64000000    66.08000000    71.64300000
   C     43.09000000    67.39000000    72.08300000
   C     44.59000000    67.42000000    72.35300000
   O     45.26000000    68.43000000    72.18300000
   C     42.29000000    67.67000000    73.34300000
   C     40.82000000    67.98000000    73.07300000
   C     39.96000000    68.16000000    74.31300000
   O     40.01000000    67.31000000    75.23300000
   O     39.05000000    69.02000000    74.42300000
   H     42.52000000    65.41000000    72.38300000
   H     42.91000000    68.25000000    71.44300000
   H     42.70000000    68.55000000    73.85300000
   H     42.32000000    66.79000000    73.98300000
   H     40.28000000    67.14000000    72.64300000
   H     40.83000000    68.85000000    72.41300000
   N     45.11000000    66.28000000    72.82300000
   C     46.47000000    66.18000000    73.31300000
   H     47.08900000    66.93100000    72.82200000
   H     46.48200000    66.34800000    74.39000000
   H     46.86300000    65.18700000    73.09500000
   H     44.42000000    65.58000000    73.03300000
  Ca     37.81000000    67.68000000    76.58000000
   O     37.17000000    66.13000000    74.62000000
   H     36.54000000    66.74000000    74.22000000
   H     36.89000000    65.27000000    74.32000000
   O     38.23000000    65.22000000    77.35000000
   H     38.01000000    64.41000000    76.90000000
   H     38.11000000    65.02000000    78.27000000

Ca 1.00



