%chk=loop2.holoCaM-CaMKII.run12.water2.chk
%nprocshared=20
%mem=10GB
%nosave
#b3lyp/svp scf=(tight,noincore,xqc) Test 
#IOP(5/87=12) Density=Current Pop=(MK,readradii) iop(6/33=2) iop(6/42=6)

loop2.holoCaM-CaMKII.run12.water2 

   -2  1 
   C     75.85000000    77.23000000    23.73000000
   C     76.90000000    78.30000000    23.42000000
   O     77.46000000    78.79000000    24.40000000
   H     74.94400000    77.43500000    23.16000000
   H     76.23700000    76.24900000    23.45400000
   H     75.62000000    77.24400000    24.79500000
   N     77.10000000    78.62000000    22.14000000
   C     78.07000000    79.57000000    21.64000000
   C     77.92000000    80.92000000    22.33000000
   O     76.79000000    81.37000000    22.55000000
   C     77.98000000    79.74000000    20.13000000
   C     79.18000000    80.39000000    19.45000000
   O     80.15000000    80.71000000    20.17000000
   O     79.22000000    80.42000000    18.20000000
   H     76.46000000    78.21000000    21.48000000
   H     79.05000000    79.14000000    21.87000000
   H     77.05000000    80.21000000    19.81000000
   H     77.87000000    78.71000000    19.81000000
   N     79.06000000    81.54000000    22.65000000
   C     79.12000000    82.83000000    23.30000000
   C     80.23000000    83.68000000    22.69000000
   O     80.72000000    84.57000000    23.38000000
   C     79.45000000    82.62000000    24.78000000
   H     79.92000000    81.04000000    22.52000000
   H     78.22000000    83.40000000    23.07000000
   H     78.50000000    82.44000000    25.28000000
   H     80.20000000    81.88000000    25.05000000
   H     79.78000000    83.54000000    25.26000000
   N     80.63000000    83.51000000    21.43000000
   C     81.63000000    84.27000000    20.71000000
   C     81.60000000    84.24000000    19.19000000
   O     82.14000000    85.18000000    18.61000000
   C     83.03000000    83.97000000    21.21000000
   C     83.46000000    82.51000000    21.17000000
   O     83.11000000    81.82000000    20.19000000
   O     84.14000000    82.03000000    22.11000000
   H     80.07000000    82.79000000    20.98000000
   H     81.32000000    85.29000000    20.92000000
   H     83.15000000    84.36000000    22.22000000
   H     83.70000000    84.57000000    20.60000000
   N     80.94000000    83.20000000    18.67000000
   C     80.98000000    82.92000000    17.25000000
   C     82.26000000    82.41000000    16.62000000
   O     82.44000000    82.60000000    15.42000000
   H     80.83000000    82.43000000    19.32000000
   H     80.76000000    83.89000000    16.79000000
   H     80.07000000    82.40000000    16.93000000
   N     83.23000000    81.87000000    17.36000000
   C     84.53000000    81.42000000    16.89000000
   C     84.46000000    80.13000000    16.08000000
   O     85.45000000    79.48000000    15.75000000
   C     85.53000000    81.43000000    18.03000000
   C     85.40000000    80.29000000    19.03000000
   N     86.30000000    80.16000000    20.00000000
   O     84.44000000    79.52000000    19.00000000
   H     83.14000000    81.95000000    18.37000000
   H     84.92000000    82.20000000    16.23000000
   H     85.48000000    82.39000000    18.55000000
   H     86.53000000    81.41000000    17.60000000
   H     87.12000000    80.75000000    19.97000000
   H     86.18000000    79.48000000    20.74000000
   N     83.27000000    79.59000000    15.83000000
   C     82.94000000    78.45000000    15.00000000
   C     83.05000000    77.08000000    15.64000000
   O     82.89000000    76.07000000    14.97000000
   H     82.48000000    79.94000000    16.36000000
   H     83.63000000    78.53000000    14.16000000
   H     81.89000000    78.53000000    14.71000000
   N     83.30000000    77.01000000    16.95000000
   C     83.75000000    75.87000000    17.73000000
   C     83.16000000    75.91000000    19.13000000
   O     82.99000000    77.00000000    19.67000000
   C     85.27000000    75.83000000    17.85000000
   C     86.06000000    75.57000000    16.57000000
   O     85.75000000    77.03000000    18.42000000
   H     83.25000000    77.92000000    17.39000000
   H     83.44000000    74.97000000    17.21000000
   H     85.58000000    75.05000000    18.54000000
   H     85.38000000    77.27000000    19.27000000
   H     85.93000000    76.26000000    15.74000000
   H     87.10000000    75.66000000    16.88000000
   H     85.88000000    74.56000000    16.20000000
   N     82.77000000    74.77000000    19.70000000
   C     82.54000000    74.72000000    21.13000000
   C     83.91000000    74.80000000    21.80000000
   O     84.83000000    74.04000000    21.52000000
   C     81.74000000    73.51000000    21.60000000
   C     80.33000000    73.62000000    21.03000000
   C     81.79000000    73.40000000    23.12000000
   C     79.68000000    72.24000000    21.12000000
   H     83.01000000    73.89000000    19.26000000
   H     82.04000000    75.63000000    21.45000000
   H     82.26000000    72.61000000    21.25000000
   H     80.35000000    73.90000000    19.98000000
   H     79.82000000    74.44000000    21.54000000
   H     82.82000000    73.19000000    23.38000000
   H     81.61000000    74.38000000    23.56000000
   H     81.17000000    72.69000000    23.66000000
   H     78.63000000    72.30000000    20.83000000
   H     80.19000000    71.43000000    20.60000000
   H     79.62000000    71.91000000    22.16000000
   N     84.10000000    75.75000000    22.71000000
   C     85.13000000    75.90000000    23.71000000
   C     84.79000000    75.20000000    25.02000000
   O     83.64000000    74.87000000    25.32000000
   C     85.41000000    77.38000000    23.92000000
   C     85.61000000    78.24000000    22.68000000
   O     84.63000000    78.48000000    21.95000000
   O     86.77000000    78.57000000    22.36000000
   H     83.25000000    76.30000000    22.79000000
   H     86.01000000    75.47000000    23.22000000
   H     86.30000000    77.48000000    24.55000000
   H     84.55000000    77.83000000    24.43000000
   N     85.82000000    74.96000000    25.83000000
   C     85.67000000    74.21000000    27.07000000
   C     84.73000000    74.87000000    28.07000000
   O     83.89000000    74.10000000    28.54000000
   C     86.98000000    73.76000000    27.70000000
   C     86.65000000    72.93000000    28.92000000
   C     86.94000000    73.39000000    30.21000000
   C     86.14000000    71.63000000    28.78000000
   C     86.66000000    72.59000000    31.33000000
   C     85.83000000    70.86000000    29.90000000
   C     86.15000000    71.30000000    31.19000000
   H     86.72000000    75.36000000    25.61000000
   H     85.10000000    73.30000000    26.88000000
   H     87.53000000    74.68000000    27.91000000
   H     87.55000000    73.16000000    27.00000000
   H     87.34000000    74.39000000    30.27000000
   H     86.03000000    71.14000000    27.82000000
   H     86.96000000    72.92000000    32.31000000
   H     85.44000000    69.86000000    29.75000000
   H     86.11000000    70.64000000    32.04000000
   N     84.79000000    76.17000000    28.36000000
   C     83.73000000    76.77000000    29.15000000
   C     82.41000000    77.02000000    28.44000000
   O     81.48000000    77.60000000    29.00000000
   C     84.42000000    78.03000000    29.66000000
   C     85.78000000    78.26000000    29.00000000
   C     85.81000000    77.12000000    27.97000000
   H     83.53000000    76.08000000    29.97000000
   H     83.69000000    78.80000000    29.40000000
   H     84.37000000    78.10000000    30.75000000
   H     85.85000000    79.22000000    28.50000000
   H     86.61000000    78.16000000    29.70000000
   H     85.62000000    77.45000000    26.95000000
   H     86.78000000    76.63000000    27.96000000
   N     82.23000000    76.53000000    27.21000000
   C     80.93000000    76.30000000    26.62000000
   C     80.46000000    74.86000000    26.75000000
   O     79.26000000    74.58000000    26.84000000
   C     80.92000000    76.79000000    25.18000000
   C     81.23000000    78.26000000    24.95000000
   C     81.25000000    78.70000000    23.49000000
   O     81.51000000    79.90000000    23.24000000
   O     80.99000000    77.99000000    22.50000000
   H     83.02000000    76.08000000    26.76000000
   H     80.17000000    76.87000000    27.16000000
   H     79.94000000    76.50000000    24.78000000
   H     81.67000000    76.19000000    24.65000000
   H     82.22000000    78.44000000    25.37000000
   H     80.44000000    78.75000000    25.52000000
   N     81.36000000    73.88000000    26.84000000
   C     80.95000000    72.51000000    27.06000000
   H     79.98000000    72.34200000    26.59200000
   H     81.68600000    71.83500000    26.62200000
   H     80.87400000    72.32000000    28.13100000
   H     82.30000000    74.19000000    26.61000000
  Ca     82.42000000    79.54000000    20.78000000
   O     80.17000000    77.63000000    20.03000000
   H     79.36000000    77.27000000    19.69000000
   H     80.21000000    77.34000000    20.94000000
   O     81.59000000    79.19000000    18.21000000
   H     80.80000000    79.67000000    17.94000000
   H     81.25000000    78.42000000    18.67000000

Ca 1.00



