%chk=loop4.apoCaM-CA-Ng.Init31.run9.water5.chk
%nprocshared=20
%mem=10GB
%nosave
#b3lyp/svp scf=(tight,noincore,xqc) Test 
#IOP(5/87=12) Density=Current Pop=(MK,readradii) iop(6/33=2) iop(6/42=6)

loop4.apoCaM-CA-Ng.Init31.run9.water5 

   -3  1 
   C     75.31000000    67.57000000    38.00000000
   C     76.57000000    67.01000000    38.66000000
   O     77.11000000    66.03000000    38.15000000
   H     74.53400000    67.70200000    38.75400000
   H     75.53700000    68.53200000    37.54100000
   H     74.96000000    66.87500000    37.23600000
   N     77.07000000    67.56000000    39.77000000
   C     76.54000000    68.50000000    40.73000000
   C     77.41000000    69.73000000    40.92000000
   O     77.10000000    70.60000000    41.72000000
   C     76.30000000    67.76000000    42.04000000
   C     75.76000000    66.34000000    41.95000000
   O     74.72000000    66.18000000    41.26000000
   O     76.28000000    65.34000000    42.48000000
   H     77.96000000    67.17000000    40.06000000
   H     75.56000000    68.91000000    40.49000000
   H     75.54000000    68.24000000    42.66000000
   H     77.23000000    67.69000000    42.61000000
   N     78.48000000    69.80000000    40.13000000
   C     79.37000000    70.93000000    40.31000000
   C     80.31000000    70.85000000    41.50000000
   O     80.65000000    71.90000000    42.03000000
   C     80.18000000    71.26000000    39.05000000
   C     80.51000000    72.72000000    38.76000000
   C     81.37000000    70.32000000    38.93000000
   C     79.30000000    73.63000000    38.60000000
   H     78.73000000    69.00000000    39.57000000
   H     78.69000000    71.77000000    40.47000000
   H     79.50000000    70.99000000    38.25000000
   H     81.06000000    72.76000000    37.82000000
   H     81.19000000    73.09000000    39.53000000
   H     82.20000000    70.68000000    39.55000000
   H     81.07000000    69.33000000    39.27000000
   H     81.66000000    70.18000000    37.89000000
   H     79.61000000    74.65000000    38.37000000
   H     78.61000000    73.15000000    37.91000000
   H     78.96000000    73.80000000    39.62000000
   N     80.80000000    69.65000000    41.83000000
   C     81.71000000    69.38000000    42.93000000
   C     81.53000000    68.04000000    43.62000000
   O     82.13000000    67.85000000    44.67000000
   C     83.12000000    69.61000000    42.39000000
   C     84.13000000    69.43000000    43.51000000
   O     84.13000000    70.18000000    44.51000000
   O     85.01000000    68.55000000    43.45000000
   H     80.58000000    68.95000000    41.14000000
   H     81.45000000    70.03000000    43.77000000
   H     83.22000000    70.57000000    41.87000000
   H     83.31000000    68.84000000    41.65000000
   N     80.70000000    67.13000000    43.09000000
   C     80.50000000    65.84000000    43.71000000
   C     81.42000000    64.77000000    43.12000000
   O     81.95000000    64.83000000    42.01000000
   H     80.27000000    67.38000000    42.21000000
   H     79.49000000    65.46000000    43.60000000
   H     80.69000000    65.87000000    44.78000000
   N     81.27000000    63.58000000    43.70000000
   C     81.94000000    62.35000000    43.33000000
   C     82.19000000    61.54000000    44.60000000
   O     81.38000000    61.58000000    45.51000000
   C     81.17000000    61.50000000    42.33000000
   C     79.77000000    61.16000000    42.83000000
   O     79.61000000    60.01000000    43.29000000
   O     78.81000000    61.94000000    42.64000000
   H     80.50000000    63.56000000    44.35000000
   H     82.95000000    62.57000000    42.96000000
   H     81.78000000    60.60000000    42.20000000
   H     81.09000000    62.10000000    41.43000000
   N     83.16000000    60.62000000    44.69000000
   C     84.27000000    60.42000000    43.77000000
   C     85.41000000    61.41000000    43.94000000
   O     85.49000000    62.03000000    45.00000000
   H     83.17000000    60.17000000    45.59000000
   H     83.94000000    60.44000000    42.73000000
   H     84.65000000    59.41000000    43.91000000
   N     86.45000000    61.48000000    43.10000000
   C     86.66000000    61.19000000    41.70000000
   C     85.69000000    61.97000000    40.81000000
   O     84.71000000    62.53000000    41.28000000
   C     86.74000000    59.71000000    41.33000000
   C     87.86000000    58.97000000    42.05000000
   C     89.25000000    59.17000000    41.45000000
   N     90.27000000    58.47000000    41.94000000
   O     89.49000000    59.97000000    40.55000000
   H     87.26000000    61.86000000    43.58000000
   H     87.62000000    61.63000000    41.43000000
   H     86.85000000    59.62000000    40.25000000
   H     85.72000000    59.35000000    41.52000000
   H     87.70000000    57.89000000    41.96000000
   H     87.97000000    59.30000000    43.08000000
   H     90.18000000    57.86000000    42.74000000
   H     91.20000000    58.49000000    41.54000000
   N     85.88000000    61.88000000    39.50000000
   C     85.06000000    62.52000000    38.49000000
   C     85.86000000    63.22000000    37.40000000
   O     87.02000000    62.85000000    37.23000000
   C     84.08000000    61.51000000    37.91000000
   C     83.20000000    60.79000000    38.92000000
   C     84.66000000    60.43000000    37.01000000
   H     86.68000000    61.32000000    39.24000000
   H     84.49000000    63.28000000    39.04000000
   H     83.31000000    61.97000000    37.28000000
   H     83.75000000    59.97000000    39.39000000
   H     82.67000000    61.49000000    39.57000000
   H     82.41000000    60.25000000    38.40000000
   H     83.84000000    59.77000000    36.70000000
   H     85.11000000    60.83000000    36.09000000
   H     85.44000000    59.77000000    37.38000000
   N     85.35000000    64.23000000    36.70000000
   C     85.93000000    64.86000000    35.53000000
   C     85.12000000    64.51000000    34.29000000
   O     85.43000000    63.57000000    33.57000000
   C     86.12000000    66.35000000    35.76000000
   C     87.20000000    66.56000000    36.80000000
   N     86.85000000    67.12000000    37.97000000
   O     88.33000000    66.14000000    36.58000000
   H     84.40000000    64.56000000    36.83000000
   H     86.90000000    64.39000000    35.33000000
   H     85.19000000    66.78000000    36.13000000
   H     86.46000000    66.85000000    34.85000000
   H     85.88000000    67.02000000    38.23000000
   H     87.54000000    67.36000000    38.66000000
   N     84.00000000    65.22000000    34.10000000
   C     83.12000000    65.19000000    32.95000000
   C     82.35000000    63.88000000    32.86000000
   O     82.77000000    62.79000000    33.24000000
   C     83.85000000    65.46000000    31.64000000
   C     83.03000000    65.70000000    30.40000000
   C     82.97000000    64.75000000    29.37000000
   C     82.60000000    67.01000000    30.14000000
   C     82.28000000    65.02000000    28.18000000
   C     81.87000000    67.31000000    28.99000000
   C     81.71000000    66.30000000    28.02000000
   O     81.02000000    66.56000000    26.87000000
   H     83.80000000    65.93000000    34.80000000
   H     82.43000000    66.03000000    33.03000000
   H     84.54000000    64.63000000    31.44000000
   H     84.47000000    66.34000000    31.81000000
   H     83.27000000    63.74000000    29.62000000
   H     82.80000000    67.84000000    30.80000000
   H     82.20000000    64.25000000    27.43000000
   H     81.54000000    68.33000000    28.82000000
   H     80.80000000    67.49000000    26.80000000
   N     81.15000000    63.94000000    32.28000000
   C     80.29000000    62.80000000    32.07000000
   C     78.86000000    63.27000000    32.28000000
   O     78.33000000    64.00000000    31.44000000
   C     80.59000000    62.30000000    30.66000000
   C     79.67000000    61.12000000    30.34000000
   C     79.77000000    60.64000000    28.90000000
   O     78.95000000    61.12000000    28.10000000
   O     80.82000000    60.04000000    28.56000000
   H     80.77000000    64.78000000    31.86000000
   H     80.52000000    61.94000000    32.71000000
   H     81.66000000    62.13000000    30.67000000
   H     80.33000000    63.13000000    30.00000000
   H     78.65000000    61.37000000    30.61000000
   H     79.83000000    60.32000000    31.07000000
   N     78.31000000    63.05000000    33.48000000
   C     77.11000000    63.63000000    34.04000000
   C     77.12000000    65.15000000    33.93000000
   O     76.28000000    65.82000000    33.34000000
   C     76.87000000    63.30000000    35.51000000
   C     76.83000000    61.82000000    35.87000000
   C     76.56000000    61.70000000    37.36000000
   O     77.47000000    61.92000000    38.20000000
   O     75.39000000    61.42000000    37.69000000
   H     78.81000000    62.42000000    34.09000000
   H     76.29000000    63.19000000    33.48000000
   H     75.93000000    63.76000000    35.82000000
   H     77.60000000    63.81000000    36.14000000
   H     77.76000000    61.27000000    35.68000000
   H     75.96000000    61.33000000    35.44000000
   N     78.18000000    65.72000000    34.51000000
   C     78.55000000    67.11000000    34.32000000
   H     79.51800000    67.16300000    33.82100000
   H     77.79800000    67.60600000    33.70700000
   H     78.61400000    67.60500000    35.28900000
   H     78.77000000    65.06000000    35.00000000
  Ca     74.31000000    63.68000000    41.58000000
   O     72.43000000    62.09000000    42.79000000
   H     71.98000000    61.96000000    43.62000000
   H     72.95000000    61.30000000    42.67000000
   O     76.14000000    61.79000000    42.47000000
   H     75.71000000    60.98000000    42.73000000
   H     77.07000000    61.60000000    42.55000000
   O     74.03000000    61.48000000    39.75000000
   H     73.44000000    60.85000000    39.34000000
   H     74.75000000    61.57000000    39.13000000
   O     73.66000000    64.56000000    44.08000000
   H     73.31000000    65.45000000    44.01000000
   H     74.16000000    64.56000000    44.89000000
   O     76.09000000    63.82000000    39.70000000
   H     76.30000000    64.67000000    39.33000000
   H     76.40000000    63.19000000    39.04000000

Ca 1.00



