%chk=loop4.apoCaM-CA-Ng.Init293.run60.water3.chk
%nprocshared=20
%mem=10GB
%nosave
#b3lyp/svp scf=(tight,noincore,xqc) Test 
#IOP(5/87=12) Density=Current Pop=(MK,readradii) iop(6/33=2) iop(6/42=6)

loop4.apoCaM-CA-Ng.Init293.run60.water3 

   -3  1 
   C     38.92000000    57.75000000    70.22000000
   C     37.54000000    57.46000000    70.81000000
   O     37.02000000    58.13000000    71.69000000
   H     39.65400000    57.08100000    70.66900000
   H     38.89600000    57.59000000    69.14200000
   H     39.19500000    58.78400000    70.42900000
   N     36.85000000    56.44000000    70.28000000
   C     35.55000000    55.87000000    70.52000000
   C     34.32000000    56.75000000    70.66000000
   O     33.21000000    56.22000000    70.71000000
   C     35.62000000    54.71000000    71.50000000
   C     35.96000000    54.99000000    72.96000000
   O     35.56000000    56.03000000    73.52000000
   O     36.44000000    54.05000000    73.62000000
   H     37.33000000    55.93000000    69.55000000
   H     35.33000000    55.33000000    69.59000000
   H     36.38000000    54.00000000    71.17000000
   H     34.68000000    54.17000000    71.46000000
   N     34.49000000    58.07000000    70.58000000
   C     33.46000000    59.01000000    71.00000000
   C     33.32000000    59.05000000    72.52000000
   O     34.36000000    58.96000000    73.17000000
   C     33.68000000    60.39000000    70.39000000
   C     33.56000000    60.29000000    68.88000000
   C     35.00000000    61.02000000    70.83000000
   C     34.20000000    61.47000000    68.15000000
   H     35.41000000    58.47000000    70.64000000
   H     32.51000000    58.65000000    70.60000000
   H     32.90000000    61.05000000    70.79000000
   H     32.53000000    60.23000000    68.52000000
   H     34.20000000    59.48000000    68.55000000
   H     35.74000000    60.30000000    70.50000000
   H     35.11000000    62.08000000    70.57000000
   H     35.18000000    61.11000000    71.90000000
   H     35.28000000    61.45000000    68.21000000
   H     33.84000000    61.33000000    67.13000000
   H     33.78000000    62.44000000    68.45000000
   N     32.08000000    59.13000000    73.00000000
   C     31.88000000    58.89000000    74.41000000
   C     32.06000000    57.42000000    74.79000000
   O     31.91000000    56.49000000    74.01000000
   C     30.51000000    59.29000000    74.95000000
   C     29.34000000    58.67000000    74.19000000
   O     28.88000000    59.28000000    73.20000000
   O     28.75000000    57.75000000    74.79000000
   H     31.27000000    59.05000000    72.39000000
   H     32.53000000    59.53000000    75.00000000
   H     30.43000000    60.37000000    74.83000000
   H     30.40000000    59.04000000    76.00000000
   N     32.60000000    57.09000000    75.97000000
   C     32.88000000    57.84000000    77.18000000
   C     33.89000000    58.96000000    76.96000000
   O     34.73000000    58.84000000    76.06000000
   H     32.93000000    56.14000000    75.97000000
   H     33.19000000    57.22000000    78.02000000
   H     31.89000000    58.24000000    77.38000000
   N     33.93000000    59.99000000    77.80000000
   C     33.09000000    60.28000000    78.94000000
   C     31.59000000    60.40000000    78.70000000
   O     30.83000000    59.79000000    79.44000000
   C     33.65000000    61.47000000    79.72000000
   C     33.00000000    61.82000000    81.05000000
   O     31.78000000    62.12000000    81.05000000
   O     33.69000000    61.66000000    82.08000000
   H     34.65000000    60.68000000    77.65000000
   H     33.27000000    59.43000000    79.61000000
   H     33.74000000    62.35000000    79.09000000
   H     34.66000000    61.13000000    79.95000000
   N     31.06000000    61.22000000    77.79000000
   C     31.75000000    62.16000000    76.92000000
   C     30.74000000    62.96000000    76.12000000
   O     29.57000000    62.59000000    76.05000000
   H     30.06000000    61.29000000    77.76000000
   H     32.45000000    61.74000000    76.19000000
   H     32.27000000    62.85000000    77.59000000
   N     31.14000000    64.11000000    75.59000000
   C     30.34000000    65.02000000    74.80000000
   C     31.29000000    66.03000000    74.18000000
   O     31.42000000    67.17000000    74.62000000
   C     29.28000000    65.63000000    75.72000000
   C     29.75000000    65.94000000    77.14000000
   C     28.72000000    66.71000000    77.94000000
   N     29.19000000    67.39000000    78.99000000
   O     27.56000000    66.87000000    77.55000000
   H     32.11000000    64.35000000    75.76000000
   H     29.90000000    64.40000000    74.02000000
   H     28.49000000    64.91000000    75.94000000
   H     29.00000000    66.58000000    75.25000000
   H     30.66000000    66.53000000    77.12000000
   H     29.90000000    65.01000000    77.69000000
   H     30.15000000    67.37000000    79.29000000
   H     28.49000000    67.93000000    79.49000000
   N     32.01000000    65.66000000    73.12000000
   C     33.09000000    66.38000000    72.47000000
   C     34.50000000    66.02000000    72.89000000
   O     34.72000000    64.85000000    73.18000000
   C     32.99000000    66.18000000    70.96000000
   C     32.00000000    67.13000000    70.30000000
   C     32.83000000    64.77000000    70.41000000
   H     31.94000000    64.67000000    72.93000000
   H     32.95000000    67.45000000    72.59000000
   H     34.00000000    66.45000000    70.64000000
   H     32.23000000    68.18000000    70.44000000
   H     32.04000000    66.90000000    69.23000000
   H     31.01000000    66.99000000    70.75000000
   H     31.99000000    64.31000000    70.92000000
   H     32.69000000    64.79000000    69.33000000
   H     33.71000000    64.14000000    70.55000000
   N     35.39000000    67.01000000    72.81000000
   C     36.83000000    66.82000000    72.70000000
   C     37.57000000    66.72000000    74.03000000
   O     38.69000000    66.22000000    74.13000000
   C     37.41000000    67.75000000    71.64000000
   C     38.90000000    67.54000000    71.40000000
   N     39.72000000    68.55000000    71.69000000
   O     39.36000000    66.47000000    71.00000000
   H     34.99000000    67.92000000    72.63000000
   H     37.05000000    65.88000000    72.20000000
   H     37.32000000    68.82000000    71.84000000
   H     36.96000000    67.59000000    70.67000000
   H     39.34000000    69.47000000    71.81000000
   H     40.66000000    68.36000000    71.35000000
   N     36.92000000    67.09000000    75.13000000
   C     37.45000000    67.06000000    76.47000000
   C     37.77000000    65.63000000    76.88000000
   O     36.94000000    64.74000000    76.67000000
   C     36.55000000    67.79000000    77.46000000
   C     37.06000000    67.80000000    78.89000000
   C     37.96000000    68.78000000    79.32000000
   C     36.53000000    66.87000000    79.79000000
   C     38.42000000    68.75000000    80.64000000
   C     36.90000000    66.91000000    81.14000000
   C     37.90000000    67.82000000    81.56000000
   O     38.35000000    67.86000000    82.85000000
   H     36.02000000    67.56000000    75.07000000
   H     38.36000000    67.65000000    76.56000000
   H     35.55000000    67.37000000    77.39000000
   H     36.46000000    68.77000000    77.00000000
   H     38.36000000    69.55000000    78.67000000
   H     35.88000000    66.08000000    79.44000000
   H     39.15000000    69.48000000    80.96000000
   H     36.41000000    66.27000000    81.86000000
   H     39.16000000    68.36000000    82.81000000
   N     38.97000000    65.37000000    77.41000000
   C     39.53000000    64.06000000    77.68000000
   C     39.66000000    63.12000000    76.49000000
   O     40.19000000    62.03000000    76.74000000
   C     38.87000000    63.35000000    78.85000000
   C     39.28000000    63.96000000    80.19000000
   C     40.78000000    63.92000000    80.45000000
   O     41.56000000    64.85000000    80.18000000
   O     41.23000000    62.86000000    80.95000000
   H     39.57000000    66.16000000    77.61000000
   H     40.57000000    64.19000000    77.99000000
   H     39.08000000    62.28000000    78.88000000
   H     37.83000000    63.54000000    78.61000000
   H     38.86000000    63.49000000    81.09000000
   H     38.95000000    65.00000000    80.18000000
   N     39.42000000    63.56000000    75.26000000
   C     39.92000000    63.01000000    74.01000000
   C     41.24000000    63.61000000    73.54000000
   O     42.18000000    62.90000000    73.21000000
   C     38.83000000    63.13000000    72.95000000
   C     37.43000000    62.64000000    73.30000000
   C     37.35000000    61.27000000    73.95000000
   O     36.29000000    61.00000000    74.57000000
   O     38.15000000    60.34000000    73.74000000
   H     38.98000000    64.47000000    75.17000000
   H     40.14000000    61.95000000    74.12000000
   H     39.11000000    62.61000000    72.04000000
   H     38.86000000    64.17000000    72.62000000
   H     36.78000000    62.63000000    72.43000000
   H     36.93000000    63.42000000    73.88000000
   N     41.37000000    64.94000000    73.65000000
   C     42.66000000    65.55000000    73.90000000
   H     43.37600000    65.20400000    73.15400000
   H     42.56800000    66.63400000    73.83900000
   H     43.00800000    65.27000000    74.89400000
   H     40.48000000    65.38000000    73.82000000
  Ca     36.73000000    58.20000000    74.30000000
   O     38.17000000    58.87000000    76.47000000
   H     38.06000000    58.96000000    77.41000000
   H     39.03000000    59.25000000    76.29000000
   O     36.55000000    56.27000000    76.37000000
   H     36.98000000    56.49000000    77.20000000
   H     36.14000000    55.42000000    76.54000000
   O     38.89000000    56.57000000    74.04000000
   H     39.55000000    56.14000000    74.59000000
   H     38.92000000    56.11000000    73.21000000

Ca 1.00



