%chk=loop4.holoCaM.run24.water2.chk
%nprocshared=20
%mem=10GB
%nosave
#b3lyp/svp scf=(tight,noincore,xqc) Test 
#IOP(5/87=12) Density=Current Pop=(MK,readradii) iop(6/33=2) iop(6/42=6)

loop4.holoCaM.run24.water2 

   -3  1 
   C     82.64000000    27.10000000     8.30000000
   C     83.46000000    28.38000000     8.27000000
   O     83.03000000    29.21000000     7.47000000
   H     81.69300000    27.26300000     7.78500000
   H     83.19100000    26.30300000     7.80100000
   H     82.44600000    26.81600000     9.33400000
   N     84.67000000    28.55000000     8.83000000
   C     85.68000000    29.48000000     8.41000000
   C     85.85000000    29.48000000     6.90000000
   O     86.09000000    28.42000000     6.32000000
   C     86.99000000    29.03000000     9.05000000
   C     88.27000000    29.85000000     8.86000000
   O     89.40000000    29.39000000     9.13000000
   O     88.14000000    30.99000000     8.36000000
   H     84.98000000    27.89000000     9.54000000
   H     85.45000000    30.51000000     8.69000000
   H     87.26000000    28.01000000     8.78000000
   H     86.83000000    29.10000000    10.12000000
   N     85.75000000    30.63000000     6.22000000
   C     86.03000000    30.62000000     4.80000000
   C     87.41000000    31.08000000     4.36000000
   O     87.69000000    31.03000000     3.16000000
   C     85.00000000    31.43000000     4.02000000
   C     85.04000000    32.94000000     4.27000000
   C     83.62000000    30.78000000     4.04000000
   C     84.74000000    33.61000000     2.93000000
   H     85.44000000    31.44000000     6.73000000
   H     85.90000000    29.62000000     4.37000000
   H     85.26000000    31.29000000     2.97000000
   H     85.98000000    33.34000000     4.63000000
   H     84.24000000    33.24000000     4.96000000
   H     82.99000000    31.31000000     3.32000000
   H     83.75000000    29.76000000     3.69000000
   H     83.21000000    30.71000000     5.05000000
   H     83.89000000    33.23000000     2.37000000
   H     84.54000000    34.63000000     3.24000000
   H     85.64000000    33.60000000     2.33000000
   N     88.33000000    31.45000000     5.26000000
   C     89.56000000    32.08000000     4.82000000
   C     90.87000000    31.65000000     5.45000000
   O     91.93000000    32.24000000     5.23000000
   C     89.40000000    33.59000000     4.68000000
   C     88.90000000    34.22000000     5.98000000
   O     88.49000000    35.39000000     5.84000000
   O     88.99000000    33.56000000     7.03000000
   H     88.15000000    31.55000000     6.25000000
   H     89.76000000    31.71000000     3.81000000
   H     88.70000000    33.82000000     3.89000000
   H     90.29000000    34.17000000     4.45000000
   N     90.83000000    30.60000000     6.28000000
   C     92.05000000    29.96000000     6.74000000
   C     92.64000000    30.64000000     7.97000000
   O     93.85000000    30.83000000     7.91000000
   H     89.98000000    30.14000000     6.55000000
   H     92.86000000    30.09000000     6.02000000
   H     91.95000000    28.91000000     7.00000000
   N     91.84000000    31.06000000     8.95000000
   C     92.33000000    31.60000000    10.21000000
   C     91.92000000    30.76000000    11.41000000
   O     92.22000000    31.13000000    12.54000000
   C     91.89000000    33.06000000    10.22000000
   C     90.40000000    33.35000000    10.22000000
   O     89.55000000    32.50000000    10.55000000
   O     89.90000000    34.47000000     9.98000000
   H     90.86000000    30.82000000     8.93000000
   H     93.41000000    31.49000000    10.17000000
   H     92.40000000    33.50000000     9.36000000
   H     92.31000000    33.48000000    11.14000000
   N     91.16000000    29.68000000    11.21000000
   C     90.58000000    28.78000000    12.19000000
   C     89.48000000    29.38000000    13.04000000
   O     89.09000000    28.73000000    14.01000000
   H     90.83000000    29.57000000    10.26000000
   H     91.42000000    28.50000000    12.83000000
   H     90.20000000    27.87000000    11.71000000
   N     88.92000000    30.54000000    12.67000000
   C     87.78000000    31.13000000    13.34000000
   C     86.63000000    31.44000000    12.39000000
   O     86.75000000    31.82000000    11.22000000
   C     88.20000000    32.38000000    14.10000000
   C     88.72000000    31.96000000    15.46000000
   C     89.00000000    33.13000000    16.39000000
   N     89.87000000    34.11000000    16.12000000
   O     88.39000000    33.34000000    17.44000000
   H     89.39000000    31.06000000    11.94000000
   H     87.33000000    30.43000000    14.04000000
   H     87.37000000    33.07000000    14.24000000
   H     88.93000000    32.98000000    13.55000000
   H     89.59000000    31.29000000    15.44000000
   H     87.87000000    31.45000000    15.92000000
   H     90.29000000    34.09000000    15.20000000
   H     89.78000000    34.87000000    16.79000000
   N     85.46000000    31.56000000    13.01000000
   C     84.36000000    32.28000000    12.40000000
   C     84.12000000    33.69000000    12.93000000
   O     84.15000000    33.96000000    14.13000000
   C     83.03000000    31.53000000    12.46000000
   C     83.03000000    30.14000000    11.83000000
   C     82.51000000    31.37000000    13.88000000
   H     85.38000000    31.44000000    14.01000000
   H     84.44000000    32.44000000    11.33000000
   H     82.29000000    32.12000000    11.91000000
   H     82.05000000    29.66000000    11.90000000
   H     83.41000000    30.15000000    10.81000000
   H     83.86000000    29.60000000    12.28000000
   H     83.26000000    30.92000000    14.53000000
   H     82.26000000    32.37000000    14.24000000
   H     81.64000000    30.71000000    13.79000000
   N     84.00000000    34.63000000    12.00000000
   C     83.47000000    35.95000000    12.30000000
   C     81.96000000    35.79000000    12.12000000
   O     81.43000000    34.72000000    11.84000000
   C     84.10000000    37.04000000    11.44000000
   C     83.47000000    37.36000000    10.10000000
   N     83.85000000    36.69000000     9.00000000
   O     82.71000000    38.33000000    10.04000000
   H     84.15000000    34.34000000    11.05000000
   H     83.62000000    36.28000000    13.33000000
   H     85.15000000    36.82000000    11.24000000
   H     84.31000000    37.87000000    12.12000000
   H     84.45000000    35.88000000     9.03000000
   H     83.73000000    37.17000000     8.12000000
   N     81.23000000    36.87000000    12.40000000
   C     79.78000000    36.95000000    12.34000000
   C     79.26000000    36.58000000    10.96000000
   O     78.23000000    35.92000000    10.89000000
   C     79.28000000    38.35000000    12.71000000
   C     77.80000000    38.56000000    12.55000000
   C     76.92000000    38.34000000    13.62000000
   C     77.36000000    39.13000000    11.35000000
   C     75.55000000    38.59000000    13.52000000
   C     75.98000000    39.32000000    11.21000000
   C     75.09000000    39.03000000    12.26000000
   O     73.80000000    39.36000000    11.99000000
   H     81.67000000    37.72000000    12.71000000
   H     79.36000000    36.16000000    12.96000000
   H     79.78000000    38.97000000    11.97000000
   H     79.62000000    38.64000000    13.71000000
   H     77.34000000    38.03000000    14.57000000
   H     78.07000000    39.31000000    10.57000000
   H     74.89000000    38.42000000    14.37000000
   H     75.62000000    39.64000000    10.24000000
   H     73.54000000    39.68000000    11.12000000
   N     79.84000000    37.00000000     9.84000000
   C     79.52000000    36.68000000     8.46000000
   C     79.60000000    35.19000000     8.15000000
   O     78.71000000    34.69000000     7.47000000
   C     80.38000000    37.52000000     7.52000000
   C     80.12000000    39.01000000     7.69000000
   C     80.96000000    39.83000000     6.72000000
   O     80.91000000    39.57000000     5.50000000
   O     81.61000000    40.84000000     7.05000000
   H     80.71000000    37.52000000     9.95000000
   H     78.45000000    36.91000000     8.42000000
   H     80.33000000    37.16000000     6.50000000
   H     81.41000000    37.42000000     7.85000000
   H     80.27000000    39.34000000     8.72000000
   H     79.09000000    39.26000000     7.43000000
   N     80.56000000    34.39000000     8.63000000
   C     80.76000000    32.97000000     8.42000000
   C     79.84000000    32.15000000     9.32000000
   O     79.36000000    31.07000000     8.97000000
   C     82.22000000    32.64000000     8.69000000
   C     83.13000000    33.25000000     7.63000000
   C     84.51000000    33.38000000     8.27000000
   O     84.77000000    33.92000000     9.37000000
   O     85.52000000    33.02000000     7.62000000
   H     81.24000000    34.82000000     9.23000000
   H     80.49000000    32.95000000     7.37000000
   H     82.31000000    31.56000000     8.56000000
   H     82.49000000    32.78000000     9.74000000
   H     82.81000000    34.25000000     7.34000000
   H     83.09000000    32.63000000     6.74000000
   N     79.60000000    32.65000000    10.53000000
   C     78.79000000    32.05000000    11.58000000
   H     77.81300000    31.78500000    11.17700000
   H     79.28400000    31.15300000    11.95300000
   H     78.66500000    32.76300000    12.39500000
   H     80.15000000    33.47000000    10.74000000
  Ca     87.54000000    33.33000000     9.15000000
   O     87.24000000    35.94000000     8.36000000
   H     86.84000000    36.78000000     8.55000000
   H     87.82000000    36.12000000     7.62000000
   O     87.27000000    34.82000000    11.52000000
   H     88.02000000    35.41000000    11.44000000
   H     87.06000000    34.82000000    12.45000000

Ca 1.00



