%chk=loop3.holoCaM.run99.water2.chk
%nprocshared=20
%mem=10GB
%nosave
#b3lyp/svp scf=(tight,noincore,xqc) Test 
#IOP(5/87=12) Density=Current Pop=(MK,readradii) iop(6/33=2) iop(6/42=6)

loop3.holoCaM.run99.water2 

   0  1 
   C     30.55000000    39.66000000    13.39000000
   C     31.21000000    39.00000000    14.60000000
   O     31.39000000    37.79000000    14.69000000
   H     29.64900000    40.18300000    13.70900000
   H     31.24300000    40.37100000    12.94100000
   H     30.28600000    38.89700000    12.65800000
   N     31.46000000    39.79000000    15.65000000
   C     31.72000000    39.28000000    16.98000000
   C     30.39000000    38.87000000    17.61000000
   O     29.57000000    39.71000000    17.97000000
   C     32.42000000    40.38000000    17.77000000
   C     32.44000000    40.02000000    19.25000000
   O     32.64000000    40.97000000    20.04000000
   O     32.26000000    38.84000000    19.63000000
   H     31.24000000    40.76000000    15.48000000
   H     32.35000000    38.40000000    16.88000000
   H     31.81000000    41.27000000    17.67000000
   H     33.46000000    40.53000000    17.48000000
   N     30.09000000    37.57000000    17.68000000
   C     28.70000000    37.16000000    17.71000000
   C     28.01000000    37.35000000    19.05000000
   O     26.78000000    37.27000000    19.14000000
   C     28.66000000    35.71000000    17.22000000
   C     29.17000000    35.52000000    15.80000000
   C     28.51000000    36.32000000    14.68000000
   C     26.99000000    36.18000000    14.59000000
   N     26.36000000    37.01000000    13.55000000
   H     30.79000000    36.91000000    17.37000000
   H     28.15000000    37.76000000    16.98000000
   H     27.59000000    35.51000000    17.29000000
   H     29.25000000    35.15000000    17.95000000
   H     29.20000000    34.46000000    15.55000000
   H     30.23000000    35.77000000    15.75000000
   H     28.85000000    35.95000000    13.71000000
   H     28.81000000    37.35000000    14.90000000
   H     26.49000000    36.51000000    15.50000000
   H     26.78000000    35.15000000    14.30000000
   H     26.77000000    36.78000000    12.65000000
   H     25.36000000    36.86000000    13.55000000
   H     26.42000000    37.99000000    13.75000000
   N     28.76000000    37.40000000    20.15000000
   C     28.33000000    37.56000000    21.52000000
   C     28.71000000    38.90000000    22.13000000
   O     28.17000000    39.21000000    23.19000000
   C     28.80000000    36.40000000    22.40000000
   C     30.29000000    36.16000000    22.25000000
   O     30.60000000    35.00000000    22.61000000
   O     31.12000000    36.97000000    21.79000000
   H     29.76000000    37.26000000    20.06000000
   H     27.24000000    37.53000000    21.53000000
   H     28.17000000    35.54000000    22.18000000
   H     28.67000000    36.64000000    23.46000000
   N     29.55000000    39.63000000    21.40000000
   C     29.98000000    40.97000000    21.76000000
   C     31.10000000    41.19000000    22.76000000
   O     31.24000000    42.35000000    23.15000000
   H     29.83000000    39.26000000    20.51000000
   H     29.09000000    41.53000000    22.04000000
   H     30.17000000    41.52000000    20.84000000
   N     31.85000000    40.17000000    23.19000000
   C     32.96000000    40.31000000    24.11000000
   C     34.07000000    41.20000000    23.57000000
   O     34.82000000    41.57000000    24.46000000
   C     33.45000000    38.91000000    24.45000000
   C     34.30000000    38.32000000    23.33000000
   N     35.51000000    37.85000000    23.65000000
   O     34.07000000    38.35000000    22.13000000
   H     31.64000000    39.24000000    22.86000000
   H     32.55000000    40.86000000    24.96000000
   H     32.63000000    38.24000000    24.70000000
   H     33.97000000    38.82000000    25.41000000
   H     35.87000000    37.80000000    24.59000000
   H     36.02000000    37.54000000    22.84000000
   N     34.13000000    41.54000000    22.28000000
   C     35.08000000    42.49000000    21.76000000
   C     36.07000000    41.96000000    20.73000000
   O     37.10000000    42.57000000    20.45000000
   H     33.45000000    41.16000000    21.62000000
   H     35.52000000    43.09000000    22.56000000
   H     34.53000000    43.22000000    21.16000000
   N     35.90000000    40.70000000    20.34000000
   C     36.91000000    39.89000000    19.68000000
   C     36.18000000    38.87000000    18.81000000
   O     35.08000000    38.36000000    19.05000000
   C     37.86000000    39.27000000    20.69000000
   C     38.53000000    40.20000000    21.68000000
   C     39.64000000    40.97000000    21.30000000
   C     38.04000000    40.33000000    22.98000000
   C     40.18000000    41.81000000    22.28000000
   C     38.57000000    41.17000000    23.96000000
   C     39.67000000    41.97000000    23.59000000
   O     40.13000000    42.91000000    24.47000000
   H     35.08000000    40.21000000    20.66000000
   H     37.36000000    40.63000000    19.03000000
   H     38.60000000    38.68000000    20.15000000
   H     37.31000000    38.53000000    21.27000000
   H     39.95000000    40.93000000    20.27000000
   H     37.16000000    39.78000000    23.28000000
   H     41.07000000    42.37000000    22.03000000
   H     38.05000000    41.26000000    24.90000000
   H     39.59000000    43.06000000    25.25000000
   N     36.90000000    38.38000000    17.80000000
   C     36.38000000    37.39000000    16.89000000
   C     37.33000000    36.20000000    16.94000000
   O     38.54000000    36.39000000    16.83000000
   C     36.32000000    38.01000000    15.49000000
   C     35.17000000    38.99000000    15.29000000
   C     36.17000000    36.98000000    14.38000000
   C     35.21000000    39.91000000    14.07000000
   H     37.83000000    38.73000000    17.59000000
   H     35.34000000    37.12000000    17.08000000
   H     37.28000000    38.49000000    15.31000000
   H     35.42000000    39.69000000    16.09000000
   H     34.22000000    38.51000000    15.51000000
   H     35.78000000    37.45000000    13.47000000
   H     37.11000000    36.49000000    14.16000000
   H     35.43000000    36.27000000    14.74000000
   H     36.17000000    40.43000000    14.01000000
   H     34.89000000    39.39000000    13.16000000
   H     34.49000000    40.72000000    14.13000000
   N     36.88000000    34.95000000    17.10000000
   C     37.63000000    33.72000000    16.97000000
   C     37.62000000    33.23000000    15.53000000
   O     36.88000000    33.72000000    14.68000000
   C     37.06000000    32.69000000    17.94000000
   O     35.94000000    32.08000000    17.34000000
   H     35.88000000    34.84000000    17.05000000
   H     38.67000000    33.92000000    17.25000000
   H     36.77000000    33.11000000    18.91000000
   H     37.76000000    31.85000000    18.03000000
   H     35.44000000    31.67000000    18.04000000
   N     38.32000000    32.11000000    15.30000000
   C     38.23000000    31.34000000    14.08000000
   C     36.86000000    30.73000000    13.82000000
   O     36.50000000    30.64000000    12.65000000
   C     39.31000000    30.27000000    14.27000000
   H     38.84000000    31.71000000    16.07000000
   H     38.44000000    31.99000000    13.22000000
   H     40.30000000    30.71000000    14.34000000
   H     39.16000000    29.67000000    15.17000000
   H     39.24000000    29.63000000    13.39000000
   N     36.09000000    30.44000000    14.87000000
   C     34.83000000    29.74000000    14.77000000
   C     33.64000000    30.65000000    14.49000000
   O     32.79000000    30.39000000    13.64000000
   C     34.54000000    28.97000000    16.05000000
   H     36.45000000    30.62000000    15.80000000
   H     34.84000000    29.10000000    13.88000000
   H     34.19000000    29.64000000    16.84000000
   H     33.79000000    28.21000000    15.83000000
   H     35.41000000    28.49000000    16.50000000
   N     33.73000000    31.87000000    15.02000000
   C     32.85000000    32.98000000    14.70000000
   C     33.23000000    33.42000000    13.29000000
   O     32.29000000    33.62000000    12.53000000
   C     32.94000000    34.17000000    15.65000000
   C     32.47000000    33.68000000    17.02000000
   C     32.65000000    34.80000000    18.04000000
   O     33.63000000    35.57000000    17.97000000
   O     31.90000000    34.94000000    19.02000000
   H     34.52000000    32.05000000    15.61000000
   H     31.78000000    32.78000000    14.60000000
   H     32.41000000    35.05000000    15.28000000
   H     33.98000000    34.44000000    15.78000000
   H     33.02000000    32.84000000    17.43000000
   H     31.44000000    33.36000000    16.87000000
   N     34.51000000    33.55000000    12.94000000
   C     34.89000000    33.80000000    11.56000000
   H     35.92400000    33.49100000    11.40700000
   H     34.23900000    33.23300000    10.89500000
   H     34.79400000    34.86400000    11.34300000
   H     35.20000000    33.38000000    13.66000000
  Ca     33.29000000    36.73000000    20.27000000
   O     33.17000000    34.51000000    21.86000000
   H     32.30000000    34.46000000    22.26000000
   H     33.58000000    33.67000000    22.08000000
   O     35.86000000    35.84000000    20.72000000
   H     36.02000000    35.26000000    21.46000000
   H     36.71000000    35.92000000    20.29000000

Ca 1.00



