%chk=loop2.holoCaM-CaMKII.run49.water2.chk
%nprocshared=20
%mem=10GB
%nosave
#b3lyp/svp scf=(tight,noincore,xqc) Test 
#IOP(5/87=12) Density=Current Pop=(MK,readradii) iop(6/33=2) iop(6/42=6)

loop2.holoCaM-CaMKII.run49.water2 

   -2  1 
   C      3.28000000    58.54000000    11.94000000
   C      2.91000000    58.17000000    10.52000000
   O      3.40000000    58.67000000     9.51000000
   H      4.11300000    59.24200000    11.92600000
   H      2.42400000    59.00300000    12.43000000
   H      3.57100000    57.64200000    12.48600000
   N      1.82000000    57.39000000    10.45000000
   C      1.33000000    56.75000000     9.25000000
   C      0.63000000    57.70000000     8.28000000
   O     -0.39000000    58.31000000     8.58000000
   C      0.39000000    55.63000000     9.68000000
   C     -0.19000000    54.92000000     8.47000000
   O     -1.42000000    54.92000000     8.30000000
   O      0.59000000    54.58000000     7.55000000
   H      1.55000000    57.04000000    11.36000000
   H      2.20000000    56.21000000     8.87000000
   H     -0.47000000    56.01000000    10.23000000
   H      1.00000000    54.90000000    10.22000000
   N      1.08000000    57.60000000     7.03000000
   C      0.46000000    58.26000000     5.90000000
   C     -0.28000000    57.39000000     4.89000000
   O     -0.95000000    57.91000000     4.01000000
   C      1.53000000    59.16000000     5.28000000
   H      1.93000000    57.07000000     6.89000000
   H     -0.35000000    58.87000000     6.29000000
   H      2.26000000    59.49000000     6.01000000
   H      2.08000000    58.54000000     4.57000000
   H      1.17000000    59.93000000     4.59000000
   N     -0.28000000    56.06000000     4.97000000
   C     -0.81000000    55.16000000     3.96000000
   C     -1.70000000    53.99000000     4.34000000
   O     -2.38000000    53.47000000     3.45000000
   C      0.20000000    54.75000000     2.89000000
   C      1.51000000    54.20000000     3.45000000
   O      1.49000000    53.65000000     4.56000000
   O      2.49000000    54.27000000     2.67000000
   H      0.19000000    55.63000000     5.75000000
   H     -1.49000000    55.71000000     3.31000000
   H      0.31000000    55.59000000     2.20000000
   H     -0.21000000    54.06000000     2.16000000
   N     -1.76000000    53.56000000     5.60000000
   C     -2.52000000    52.40000000     6.02000000
   C     -1.73000000    51.11000000     5.88000000
   O     -2.28000000    50.07000000     6.24000000
   H     -1.29000000    54.13000000     6.29000000
   H     -3.34000000    52.18000000     5.33000000
   H     -2.77000000    52.62000000     7.05000000
   N     -0.49000000    51.10000000     5.39000000
   C      0.18000000    49.84000000     5.11000000
   C      0.53000000    49.07000000     6.38000000
   O      0.93000000    47.92000000     6.26000000
   C      1.30000000    50.04000000     4.10000000
   C      2.63000000    50.60000000     4.57000000
   N      3.64000000    50.92000000     3.75000000
   O      2.78000000    50.83000000     5.77000000
   H     -0.03000000    51.91000000     4.99000000
   H     -0.63000000    49.25000000     4.69000000
   H      1.01000000    50.80000000     3.37000000
   H      1.43000000    49.14000000     3.51000000
   H      3.54000000    50.77000000     2.76000000
   H      4.52000000    51.24000000     4.13000000
   N      0.33000000    49.55000000     7.61000000
   C      0.70000000    48.81000000     8.80000000
   C      2.14000000    48.87000000     9.28000000
   O      2.50000000    48.22000000    10.26000000
   H      0.24000000    50.56000000     7.61000000
   H      0.36000000    47.78000000     8.77000000
   H      0.19000000    49.34000000     9.61000000
   N      3.08000000    49.42000000     8.51000000
   C      4.50000000    49.48000000     8.81000000
   C      5.01000000    50.91000000     8.68000000
   O      4.31000000    51.69000000     8.04000000
   C      5.21000000    48.54000000     7.84000000
   C      5.01000000    47.06000000     8.17000000
   O      4.94000000    48.73000000     6.47000000
   H      2.73000000    49.79000000     7.63000000
   H      4.66000000    49.04000000     9.79000000
   H      6.24000000    48.86000000     7.99000000
   H      5.51000000    49.46000000     6.23000000
   H      5.84000000    46.42000000     7.89000000
   H      5.00000000    46.96000000     9.25000000
   H      4.06000000    46.68000000     7.79000000
   N      6.14000000    51.30000000     9.27000000
   C      6.71000000    52.63000000     9.28000000
   C      7.48000000    52.69000000     7.97000000
   O      8.17000000    51.73000000     7.65000000
   C      7.50000000    53.02000000    10.53000000
   C      6.75000000    52.84000000    11.85000000
   C      7.78000000    54.52000000    10.46000000
   C      7.53000000    52.27000000    13.03000000
   H      6.57000000    50.55000000     9.80000000
   H      5.86000000    53.30000000     9.19000000
   H      8.48000000    52.54000000    10.52000000
   H      6.06000000    52.03000000    11.64000000
   H      6.21000000    53.72000000    12.21000000
   H      8.41000000    54.65000000     9.58000000
   H      6.88000000    55.12000000    10.36000000
   H      8.41000000    54.79000000    11.31000000
   H      7.10000000    52.58000000    13.98000000
   H      7.51000000    51.19000000    12.98000000
   H      8.55000000    52.64000000    12.91000000
   N      7.32000000    53.77000000     7.20000000
   C      8.17000000    54.16000000     6.09000000
   C      9.17000000    55.25000000     6.41000000
   O      8.97000000    56.02000000     7.35000000
   C      7.20000000    54.58000000     4.98000000
   C      6.11000000    53.56000000     4.69000000
   O      5.03000000    53.68000000     5.31000000
   O      6.33000000    52.55000000     3.99000000
   H      6.57000000    54.39000000     7.46000000
   H      8.72000000    53.28000000     5.76000000
   H      7.84000000    54.62000000     4.10000000
   H      6.92000000    55.62000000     5.12000000
   N     10.18000000    55.44000000     5.55000000
   C     11.20000000    56.41000000     5.86000000
   C     10.67000000    57.82000000     6.12000000
   O     11.20000000    58.42000000     7.04000000
   C     12.25000000    56.29000000     4.76000000
   C     13.51000000    57.06000000     5.11000000
   C     13.75000000    58.27000000     4.44000000
   C     14.41000000    56.55000000     6.06000000
   C     14.88000000    59.03000000     4.76000000
   C     15.59000000    57.26000000     6.28000000
   C     15.77000000    58.53000000     5.72000000
   H     10.33000000    54.88000000     4.73000000
   H     11.76000000    56.17000000     6.77000000
   H     11.93000000    56.61000000     3.77000000
   H     12.56000000    55.27000000     4.52000000
   H     13.05000000    58.65000000     3.71000000
   H     14.17000000    55.58000000     6.47000000
   H     15.14000000    59.87000000     4.14000000
   H     16.34000000    56.87000000     6.96000000
   H     16.73000000    59.03000000     5.77000000
   N      9.75000000    58.47000000     5.40000000
   C      9.32000000    59.81000000     5.76000000
   C      8.51000000    59.88000000     7.05000000
   O      8.23000000    60.95000000     7.59000000
   C      8.62000000    60.36000000     4.52000000
   C      8.91000000    59.30000000     3.46000000
   C      9.09000000    57.98000000     4.21000000
   H     10.17000000    60.46000000     5.97000000
   H      7.57000000    60.56000000     4.72000000
   H      9.11000000    61.31000000     4.32000000
   H      8.07000000    59.33000000     2.76000000
   H      9.81000000    59.49000000     2.89000000
   H      8.14000000    57.50000000     4.46000000
   H      9.70000000    57.31000000     3.61000000
   N      8.06000000    58.75000000     7.59000000
   C      7.19000000    58.64000000     8.74000000
   C      8.04000000    58.31000000     9.96000000
   O      7.92000000    58.92000000    11.02000000
   C      6.25000000    57.45000000     8.56000000
   C      5.30000000    57.44000000     7.36000000
   C      4.46000000    56.17000000     7.34000000
   O      3.42000000    56.06000000     6.64000000
   O      4.85000000    55.15000000     7.95000000
   H      8.16000000    57.94000000     6.99000000
   H      6.60000000    59.54000000     8.91000000
   H      5.72000000    57.27000000     9.49000000
   H      6.95000000    56.61000000     8.52000000
   H      5.97000000    57.42000000     6.50000000
   H      4.71000000    58.35000000     7.38000000
   N      9.13000000    57.55000000     9.81000000
   C     10.20000000    57.38000000    10.77000000
   H     11.03100000    58.03300000    10.50600000
   H      9.83900000    57.63600000    11.76600000
   H     10.53600000    56.34300000    10.76000000
   H      9.38000000    57.30000000     8.86000000
  Ca      2.93000000    53.55000000     6.79000000
   O      3.34000000    54.33000000     9.81000000
   H      4.05000000    54.72000000     9.30000000
   H      3.31000000    54.86000000    10.61000000
   O      1.58000000    52.14000000     8.59000000
   H      0.85000000    52.28000000     9.19000000
   H      2.36000000    52.19000000     9.16000000

Ca 1.00



