%chk=loop4.holoCaM.run74.water1.chk
%nprocshared=20
%mem=10GB
%nosave
#b3lyp/svp scf=(tight,noincore,xqc) Test 
#IOP(5/87=12) Density=Current Pop=(MK,readradii) iop(6/33=2) iop(6/42=6)

loop4.holoCaM.run74.water1 

   -3  1 
   C     84.68000000    58.44000000    24.46000000
   C     83.98000000    59.78000000    24.28000000
   O     83.23000000    59.90000000    23.31000000
   H     85.63000000    58.59300000    24.97100000
   H     84.05100000    57.77800000    25.05500000
   H     84.86100000    57.99000000    23.48400000
   N     84.13000000    60.75000000    25.19000000
   C     83.47000000    62.04000000    25.10000000
   C     84.32000000    63.01000000    24.29000000
   O     85.47000000    63.29000000    24.62000000
   C     83.39000000    62.51000000    26.55000000
   C     82.71000000    63.85000000    26.76000000
   O     82.37000000    64.19000000    27.91000000
   O     82.27000000    64.52000000    25.80000000
   H     84.67000000    60.51000000    26.00000000
   H     82.51000000    61.97000000    24.60000000
   H     84.36000000    62.45000000    27.05000000
   H     82.75000000    61.76000000    27.02000000
   N     83.81000000    63.56000000    23.19000000
   C     84.58000000    64.25000000    22.17000000
   C     84.59000000    65.77000000    22.26000000
   O     85.32000000    66.44000000    21.54000000
   C     84.16000000    63.86000000    20.76000000
   C     82.78000000    64.36000000    20.36000000
   C     84.31000000    62.35000000    20.56000000
   C     82.80000000    65.40000000    19.23000000
   H     82.83000000    63.35000000    23.03000000
   H     85.63000000    63.96000000    22.17000000
   H     84.86000000    64.22000000    20.00000000
   H     82.24000000    64.67000000    21.25000000
   H     82.17000000    63.53000000    20.00000000
   H     84.42000000    62.23000000    19.48000000
   H     85.13000000    61.80000000    21.01000000
   H     83.38000000    61.94000000    20.95000000
   H     83.24000000    64.95000000    18.34000000
   H     81.77000000    65.65000000    18.98000000
   H     83.22000000    66.37000000    19.49000000
   N     83.90000000    66.34000000    23.25000000
   C     83.59000000    67.74000000    23.47000000
   C     83.87000000    68.17000000    24.90000000
   O     84.55000000    69.16000000    25.18000000
   C     82.20000000    68.17000000    23.01000000
   C     81.07000000    67.34000000    23.59000000
   O     80.82000000    67.43000000    24.82000000
   O     80.46000000    66.45000000    22.96000000
   H     83.44000000    65.71000000    23.89000000
   H     84.30000000    68.29000000    22.85000000
   H     82.20000000    68.13000000    21.92000000
   H     81.98000000    69.16000000    23.41000000
   N     83.61000000    67.33000000    25.90000000
   C     83.91000000    67.44000000    27.31000000
   C     82.83000000    67.97000000    28.24000000
   O     83.05000000    69.01000000    28.86000000
   H     83.06000000    66.50000000    25.70000000
   H     84.73000000    68.12000000    27.53000000
   H     84.24000000    66.46000000    27.67000000
   N     81.88000000    67.10000000    28.59000000
   C     80.84000000    67.38000000    29.56000000
   C     80.44000000    66.18000000    30.41000000
   O     79.43000000    66.19000000    31.11000000
   C     79.63000000    68.00000000    28.87000000
   C     79.09000000    67.12000000    27.76000000
   O     78.24000000    67.68000000    27.03000000
   O     79.49000000    65.94000000    27.58000000
   H     81.93000000    66.13000000    28.32000000
   H     81.18000000    68.16000000    30.24000000
   H     79.85000000    69.00000000    28.49000000
   H     78.82000000    68.24000000    29.56000000
   N     81.20000000    65.09000000    30.35000000
   C     80.98000000    63.89000000    31.14000000
   C     79.83000000    62.99000000    30.72000000
   O     79.43000000    62.19000000    31.56000000
   H     81.95000000    65.03000000    29.68000000
   H     80.79000000    64.18000000    32.18000000
   H     81.88000000    63.28000000    31.15000000
   N     79.22000000    63.26000000    29.57000000
   C     78.13000000    62.48000000    29.02000000
   C     78.02000000    62.49000000    27.50000000
   O     78.75000000    63.20000000    26.81000000
   C     76.84000000    62.97000000    29.67000000
   C     76.45000000    64.40000000    29.30000000
   C     75.10000000    64.73000000    29.90000000
   N     74.56000000    65.94000000    29.78000000
   O     74.36000000    63.90000000    30.44000000
   H     79.61000000    63.92000000    28.90000000
   H     78.34000000    61.45000000    29.31000000
   H     76.98000000    62.90000000    30.75000000
   H     76.04000000    62.28000000    29.43000000
   H     76.58000000    64.58000000    28.23000000
   H     77.22000000    65.02000000    29.77000000
   H     75.02000000    66.73000000    29.35000000
   H     73.64000000    66.12000000    30.16000000
   N     77.23000000    61.60000000    26.90000000
   C     77.13000000    61.36000000    25.48000000
   C     75.79000000    61.84000000    24.94000000
   O     74.67000000    61.68000000    25.41000000
   C     77.48000000    59.92000000    25.11000000
   C     78.93000000    59.56000000    25.39000000
   C     76.50000000    58.94000000    25.76000000
   H     76.59000000    61.08000000    27.49000000
   H     77.90000000    61.93000000    24.95000000
   H     77.23000000    59.78000000    24.05000000
   H     79.06000000    59.48000000    26.47000000
   H     79.07000000    58.67000000    24.78000000
   H     79.57000000    60.32000000    24.94000000
   H     75.57000000    59.10000000    25.21000000
   H     76.89000000    57.93000000    25.63000000
   H     76.44000000    59.08000000    26.83000000
   N     75.84000000    62.49000000    23.77000000
   C     74.70000000    62.78000000    22.92000000
   C     74.71000000    61.67000000    21.88000000
   O     75.68000000    60.96000000    21.66000000
   C     75.02000000    64.16000000    22.35000000
   C     75.61000000    64.16000000    20.95000000
   N     76.94000000    64.13000000    20.86000000
   O     74.86000000    64.17000000    19.97000000
   H     76.72000000    62.67000000    23.32000000
   H     73.74000000    62.97000000    23.40000000
   H     75.64000000    64.72000000    23.05000000
   H     74.12000000    64.78000000    22.35000000
   H     77.64000000    64.07000000    21.58000000
   H     77.24000000    64.08000000    19.90000000
   N     73.61000000    61.63000000    21.11000000
   C     73.51000000    60.63000000    20.07000000
   C     74.66000000    60.50000000    19.08000000
   O     75.10000000    59.39000000    18.77000000
   C     72.20000000    60.82000000    19.30000000
   C     71.85000000    59.73000000    18.32000000
   C     71.59000000    58.40000000    18.69000000
   C     71.77000000    60.06000000    16.96000000
   C     71.37000000    57.40000000    17.74000000
   C     71.51000000    59.10000000    15.98000000
   C     71.34000000    57.76000000    16.37000000
   O     71.08000000    56.76000000    15.48000000
   H     72.82000000    62.26000000    21.15000000
   H     73.50000000    59.65000000    20.54000000
   H     72.21000000    61.78000000    18.80000000
   H     71.48000000    60.98000000    20.11000000
   H     71.90000000    58.06000000    19.66000000
   H     71.95000000    61.09000000    16.67000000
   H     71.23000000    56.39000000    18.07000000
   H     71.49000000    59.31000000    14.92000000
   H     71.19000000    57.06000000    14.58000000
   N     75.32000000    61.57000000    18.63000000
   C     76.43000000    61.62000000    17.70000000
   C     77.79000000    61.20000000    18.24000000
   O     78.69000000    60.82000000    17.50000000
   C     76.54000000    63.04000000    17.13000000
   C     75.36000000    63.33000000    16.21000000
   C     75.51000000    64.51000000    15.26000000
   O     75.97000000    64.32000000    14.12000000
   O     75.12000000    65.63000000    15.67000000
   H     75.03000000    62.47000000    18.99000000
   H     76.16000000    60.95000000    16.89000000
   H     77.44000000    63.22000000    16.55000000
   H     76.54000000    63.74000000    17.97000000
   H     74.47000000    63.49000000    16.83000000
   H     75.13000000    62.41000000    15.68000000
   N     77.88000000    61.14000000    19.57000000
   C     78.92000000    60.51000000    20.35000000
   C     78.55000000    59.06000000    20.61000000
   O     79.37000000    58.15000000    20.44000000
   C     78.97000000    61.24000000    21.69000000
   C     79.77000000    62.51000000    21.44000000
   C     79.80000000    63.34000000    22.72000000
   O     78.74000000    63.91000000    23.04000000
   O     80.85000000    63.34000000    23.39000000
   H     77.12000000    61.63000000    20.03000000
   H     79.87000000    60.41000000    19.82000000
   H     79.40000000    60.76000000    22.57000000
   H     77.99000000    61.52000000    22.08000000
   H     79.28000000    63.06000000    20.64000000
   H     80.79000000    62.26000000    21.13000000
   N     77.28000000    58.75000000    20.88000000
   C     76.85000000    57.45000000    21.34000000
   H     75.86600000    57.22700000    20.92800000
   H     77.56200000    56.69300000    21.01000000
   H     76.79600000    57.44900000    22.42900000
   H     76.60000000    59.50000000    20.97000000
  Ca     79.76000000    65.03000000    25.22000000
   O     77.47000000    66.45000000    24.97000000
   H     77.66000000    67.02000000    25.71000000
   H     77.23000000    67.04000000    24.25000000

Ca 1.00



