%chk=loop1.apoCaM-CA-Ng.Init295.run2.water6.chk
%nprocshared=20
%mem=10GB
%nosave
#b3lyp/svp scf=(tight,noincore,xqc) Test 
#IOP(5/87=12) Density=Current Pop=(MK,readradii) iop(6/33=2) iop(6/42=6)

loop1.apoCaM-CA-Ng.Init295.run2.water6 

   0  1 
   C     33.56000000    45.99000000    15.49000000
   C     34.48000000    46.62000000    14.44000000
   O     35.26000000    45.93000000    13.79000000
   H     32.59700000    45.75600000    15.03500000
   H     34.01400000    45.07500000    15.87000000
   H     33.41200000    46.69100000    16.31200000
   N     34.26000000    47.93000000    14.32000000
   C     34.93000000    48.79000000    13.37000000
   C     34.83000000    48.16000000    11.99000000
   O     35.84000000    47.94000000    11.32000000
   C     36.35000000    49.08000000    13.86000000
   C     37.18000000    50.02000000    12.99000000
   O     36.64000000    50.76000000    12.14000000
   O     38.40000000    50.02000000    13.25000000
   H     33.48000000    48.32000000    14.82000000
   H     34.35000000    49.71000000    13.32000000
   H     36.88000000    48.13000000    13.89000000
   H     36.47000000    49.48000000    14.87000000
   N     33.58000000    47.89000000    11.62000000
   C     33.20000000    47.28000000    10.37000000
   C     32.45000000    48.30000000     9.52000000
   O     32.68000000    48.20000000     8.32000000
   C     32.48000000    45.97000000    10.69000000
   C     31.78000000    45.27000000     9.53000000
   C     31.04000000    43.98000000     9.89000000
   C     30.62000000    43.23000000     8.64000000
   N     29.43000000    43.82000000     7.99000000
   H     32.86000000    48.18000000    12.27000000
   H     34.09000000    46.92000000     9.84000000
   H     31.70000000    46.25000000    11.40000000
   H     33.09000000    45.23000000    11.20000000
   H     32.55000000    45.07000000     8.79000000
   H     31.10000000    46.03000000     9.14000000
   H     30.15000000    44.24000000    10.45000000
   H     31.67000000    43.27000000    10.43000000
   H     30.40000000    42.20000000     8.93000000
   H     31.37000000    43.14000000     7.85000000
   H     28.91000000    43.25000000     7.34000000
   H     28.80000000    44.07000000     8.74000000
   H     29.68000000    44.72000000     7.61000000
   N     31.58000000    49.13000000    10.11000000
   C     30.73000000    50.11000000     9.47000000
   C     30.86000000    51.51000000    10.06000000
   O     30.83000000    52.49000000     9.33000000
   C     29.28000000    49.64000000     9.45000000
   C     28.42000000    50.63000000     8.69000000
   O     28.89000000    51.14000000     7.65000000
   O     27.27000000    50.89000000     9.11000000
   H     31.42000000    49.06000000    11.10000000
   H     31.05000000    50.20000000     8.43000000
   H     28.78000000    49.47000000    10.41000000
   H     29.12000000    48.78000000     8.80000000
   N     30.92000000    51.63000000    11.39000000
   C     30.98000000    52.84000000    12.19000000
   C     32.33000000    53.51000000    12.00000000
   O     33.25000000    53.08000000    12.70000000
   H     30.80000000    50.81000000    11.96000000
   H     30.93000000    52.65000000    13.26000000
   H     30.20000000    53.56000000    11.93000000
   N     32.42000000    54.52000000    11.13000000
   C     33.65000000    55.09000000    10.62000000
   C     34.49000000    55.68000000    11.73000000
   O     34.05000000    56.39000000    12.64000000
   C     33.33000000    56.08000000     9.50000000
   C     32.24000000    55.77000000     8.48000000
   O     32.38000000    54.76000000     7.76000000
   O     31.20000000    56.46000000     8.48000000
   H     31.61000000    54.76000000    10.58000000
   H     34.22000000    54.23000000    10.25000000
   H     34.29000000    56.25000000     9.01000000
   H     32.98000000    57.01000000     9.94000000
   N     35.78000000    55.32000000    11.74000000
   C     36.71000000    55.86000000    12.71000000
   C     36.70000000    55.14000000    14.05000000
   O     37.64000000    55.26000000    14.83000000
   H     36.09000000    54.58000000    11.12000000
   H     36.50000000    56.92000000    12.87000000
   H     37.71000000    55.62000000    12.36000000
   N     35.79000000    54.20000000    14.31000000
   C     35.64000000    53.47000000    15.55000000
   C     34.98000000    54.33000000    16.62000000
   O     34.50000000    55.42000000    16.32000000
   C     34.80000000    52.22000000    15.30000000
   C     35.05000000    51.10000000    16.32000000
   O     33.40000000    52.36000000    15.25000000
   H     35.11000000    54.13000000    13.56000000
   H     36.62000000    53.11000000    15.86000000
   H     35.12000000    51.77000000    14.36000000
   H     33.20000000    52.73000000    14.38000000
   H     34.58000000    50.17000000    16.01000000
   H     36.11000000    50.86000000    16.38000000
   H     34.55000000    51.36000000    17.26000000
   N     34.92000000    53.89000000    17.88000000
   C     34.33000000    54.64000000    18.97000000
   C     35.32000000    55.40000000    19.84000000
   O     35.09000000    55.74000000    20.99000000
   C     33.47000000    53.76000000    19.87000000
   C     34.23000000    52.47000000    20.17000000
   C     32.17000000    53.48000000    19.13000000
   C     33.55000000    51.56000000    21.20000000
   H     35.39000000    53.04000000    18.15000000
   H     33.67000000    55.43000000    18.60000000
   H     33.13000000    54.27000000    20.76000000
   H     35.20000000    52.70000000    20.60000000
   H     34.33000000    51.86000000    19.27000000
   H     31.60000000    54.39000000    18.90000000
   H     32.31000000    52.88000000    18.23000000
   H     31.53000000    52.86000000    19.75000000
   H     34.23000000    50.71000000    21.28000000
   H     33.41000000    52.08000000    22.15000000
   H     32.56000000    51.21000000    20.94000000
   N     36.52000000    55.71000000    19.34000000
   C     37.55000000    56.47000000    20.02000000
   C     38.60000000    55.45000000    20.45000000
   O     39.05000000    54.73000000    19.56000000
   C     38.08000000    57.59000000    19.13000000
   C     37.35000000    58.92000000    19.28000000
   O     39.43000000    57.85000000    19.43000000
   H     36.78000000    55.35000000    18.44000000
   H     37.15000000    56.91000000    20.94000000
   H     38.03000000    57.20000000    18.11000000
   H     39.46000000    58.49000000    20.15000000
   H     36.35000000    58.90000000    18.85000000
   H     37.10000000    59.17000000    20.31000000
   H     37.87000000    59.75000000    18.79000000
   N     39.03000000    55.51000000    21.71000000
   C     40.15000000    54.71000000    22.13000000
   C     40.03000000    54.16000000    23.55000000
   O     40.64000000    53.14000000    23.84000000
   C     41.48000000    55.46000000    22.10000000
   C     42.68000000    54.52000000    22.23000000
   O     41.52000000    56.43000000    23.12000000
   H     38.58000000    56.12000000    22.38000000
   H     40.22000000    53.81000000    21.51000000
   H     41.59000000    55.96000000    21.14000000
   H     42.36000000    56.89000000    23.03000000
   H     43.48000000    55.01000000    21.68000000
   H     42.80000000    54.44000000    23.31000000
   H     42.54000000    53.56000000    21.74000000
   N     39.26000000    54.79000000    24.45000000
   C     39.16000000    54.41000000    25.84000000
   C     37.69000000    54.38000000    26.24000000
   O     36.90000000    55.11000000    25.64000000
   C     39.91000000    55.30000000    26.83000000
   C     41.40000000    55.16000000    26.53000000
   C     42.11000000    56.12000000    27.48000000
   C     43.63000000    56.05000000    27.36000000
   N     44.08000000    54.87000000    28.11000000
   H     38.62000000    55.52000000    24.18000000
   H     39.51000000    53.38000000    25.99000000
   H     39.67000000    55.05000000    27.86000000
   H     39.52000000    56.30000000    26.62000000
   H     41.53000000    55.44000000    25.49000000
   H     41.74000000    54.14000000    26.68000000
   H     41.81000000    56.03000000    28.52000000
   H     41.87000000    57.17000000    27.32000000
   H     44.09000000    56.96000000    27.76000000
   H     43.94000000    56.11000000    26.31000000
   H     45.09000000    54.85000000    28.17000000
   H     43.57000000    54.88000000    28.97000000
   H     43.89000000    54.01000000    27.62000000
   N     37.32000000    53.55000000    27.22000000
   C     36.02000000    53.12000000    27.70000000
   C     35.05000000    52.77000000    26.58000000
   O     33.99000000    53.38000000    26.49000000
   C     36.20000000    52.08000000    28.81000000
   C     34.88000000    51.69000000    29.47000000
   C     35.12000000    50.90000000    30.75000000
   O     35.98000000    51.30000000    31.56000000
   O     34.62000000    49.77000000    30.88000000
   H     38.11000000    53.08000000    27.64000000
   H     35.61000000    54.03000000    28.14000000
   H     36.86000000    52.54000000    29.55000000
   H     36.67000000    51.19000000    28.39000000
   H     34.41000000    51.02000000    28.76000000
   H     34.27000000    52.58000000    29.64000000
   N     35.17000000    51.75000000    25.73000000
   C     36.27000000    50.88000000    25.37000000
   H     37.13600000    51.11600000    25.98800000
   H     35.98100000    49.84200000    25.53200000
   H     36.52200000    51.02800000    24.32000000
   H     34.35000000    51.73000000    25.15000000
  Ca     30.14000000    53.38000000     6.93000000
   O     30.60000000    54.91000000     4.73000000
   H     30.23000000    55.79000000     4.80000000
   H     31.29000000    54.99000000     4.07000000
   O     28.94000000    56.05000000     7.31000000
   H     28.21000000    56.55000000     7.69000000
   H     29.72000000    56.49000000     7.66000000
   O     28.22000000    53.63000000     8.78000000
   H     27.81000000    54.25000000     9.38000000
   H     27.79000000    52.80000000     8.96000000
   O     32.55000000    51.73000000     6.61000000
   H     32.39000000    51.40000000     5.73000000
   H     33.42000000    51.39000000     6.83000000
   O     30.56000000    51.75000000     4.70000000
   H     29.98000000    51.03000000     4.47000000
   H     31.04000000    51.95000000     3.89000000
   O     27.95000000    53.27000000     5.51000000
   H     27.79000000    53.25000000     4.56000000
   H     27.23000000    52.77000000     5.88000000

Ca 1.00



