%chk=loop1.apoCaM-CA-Ng.Init293.run35.water5.chk
%nprocshared=20
%mem=10GB
%nosave
#b3lyp/svp scf=(tight,noincore,xqc) Test 
#IOP(5/87=12) Density=Current Pop=(MK,readradii) iop(6/33=2) iop(6/42=6)

loop1.apoCaM-CA-Ng.Init293.run35.water5 

   0  1 
   C     39.49000000    75.96000000   116.77000000
   C     39.77000000    75.26000000   118.10000000
   O     39.88000000    74.04000000   118.19000000
   H     38.69800000    76.69600000   116.90700000
   H     40.39500000    76.46100000   116.42500000
   H     39.17700000    75.22400000   116.03000000
   N     39.94000000    76.07000000   119.14000000
   C     40.35000000    75.60000000   120.45000000
   C     39.19000000    75.32000000   121.40000000
   O     39.43000000    75.08000000   122.58000000
   C     41.17000000    76.74000000   121.03000000
   C     40.45000000    78.08000000   121.10000000
   O     40.60000000    78.69000000   122.18000000
   O     39.82000000    78.60000000   120.15000000
   H     39.96000000    77.07000000   119.00000000
   H     40.94000000    74.68000000   120.49000000
   H     41.96000000    76.94000000   120.30000000
   H     41.61000000    76.40000000   121.96000000
   N     37.94000000    75.33000000   120.93000000
   C     36.71000000    75.19000000   121.68000000
   C     35.78000000    74.21000000   120.99000000
   O     35.15000000    74.66000000   120.03000000
   C     36.11000000    76.57000000   121.91000000
   C     37.08000000    77.60000000   122.47000000
   C     36.51000000    78.98000000   122.81000000
   C     37.48000000    80.14000000   123.01000000
   N     38.35000000    80.31000000   121.84000000
   H     37.84000000    75.44000000   119.93000000
   H     36.99000000    74.79000000   122.66000000
   H     35.35000000    76.40000000   122.68000000
   H     35.60000000    76.91000000   121.02000000
   H     37.83000000    77.75000000   121.70000000
   H     37.60000000    77.19000000   123.34000000
   H     35.93000000    78.87000000   123.73000000
   H     35.99000000    79.34000000   121.92000000
   H     38.06000000    79.92000000   123.91000000
   H     36.85000000    80.99000000   123.30000000
   H     37.87000000    80.22000000   120.96000000
   H     38.89000000    81.16000000   121.91000000
   H     39.05000000    79.59000000   121.94000000
   N     35.56000000    72.96000000   121.42000000
   C     35.98000000    72.34000000   122.66000000
   C     35.49000000    72.97000000   123.96000000
   O     35.24000000    74.17000000   124.02000000
   C     37.49000000    72.12000000   122.73000000
   C     38.06000000    71.29000000   121.59000000
   O     38.81000000    71.82000000   120.75000000
   O     37.68000000    70.11000000   121.38000000
   H     34.73000000    72.52000000   121.04000000
   H     35.55000000    71.34000000   122.64000000
   H     37.84000000    71.58000000   123.61000000
   H     37.97000000    73.10000000   122.84000000
   N     35.17000000    72.23000000   125.03000000
   C     35.21000000    70.80000000   125.21000000
   C     36.38000000    70.50000000   126.13000000
   O     36.53000000    71.09000000   127.19000000
   H     34.83000000    72.73000000   125.84000000
   H     35.38000000    70.28000000   124.27000000
   H     34.28000000    70.40000000   125.62000000
   N     37.14000000    69.41000000   125.96000000
   C     37.38000000    68.66000000   124.75000000
   C     38.85000000    68.30000000   124.61000000
   O     39.46000000    67.82000000   125.57000000
   C     36.50000000    67.42000000   124.82000000
   C     36.50000000    66.68000000   123.49000000
   O     36.25000000    65.46000000   123.41000000
   O     36.78000000    67.28000000   122.43000000
   H     37.68000000    69.23000000   126.79000000
   H     37.08000000    69.30000000   123.91000000
   H     35.45000000    67.71000000   124.98000000
   H     36.82000000    66.84000000   125.69000000
   N     39.42000000    68.61000000   123.45000000
   C     40.71000000    68.13000000   122.99000000
   C     41.17000000    68.78000000   121.69000000
   O     40.84000000    69.91000000   121.33000000
   H     38.90000000    69.05000000   122.70000000
   H     40.74000000    67.05000000   122.88000000
   H     41.36000000    68.33000000   123.85000000
   N     42.02000000    68.07000000   120.95000000
   C     42.74000000    68.57000000   119.80000000
   C     42.00000000    68.36000000   118.48000000
   O     41.38000000    67.31000000   118.31000000
   C     44.11000000    67.94000000   119.64000000
   C     44.07000000    66.43000000   119.43000000
   O     45.04000000    68.31000000   120.64000000
   H     42.20000000    67.10000000   121.21000000
   H     42.78000000    69.66000000   119.79000000
   H     44.66000000    68.28000000   118.77000000
   H     44.71000000    67.98000000   121.48000000
   H     43.72000000    65.90000000   120.31000000
   H     43.52000000    66.14000000   118.53000000
   H     45.08000000    66.02000000   119.40000000
   N     42.05000000    69.33000000   117.56000000
   C     41.33000000    69.35000000   116.31000000
   C     42.10000000    68.67000000   115.18000000
   O     42.97000000    69.26000000   114.56000000
   C     40.89000000    70.77000000   115.94000000
   C     40.02000000    70.89000000   114.69000000
   C     41.97000000    71.85000000   115.84000000
   C     38.65000000    70.24000000   114.79000000
   H     42.53000000    70.18000000   117.81000000
   H     40.42000000    68.75000000   116.37000000
   H     40.29000000    71.09000000   116.79000000
   H     40.61000000    70.38000000   113.93000000
   H     40.00000000    71.96000000   114.51000000
   H     42.57000000    71.88000000   116.75000000
   H     42.66000000    71.57000000   115.05000000
   H     41.57000000    72.85000000   115.74000000
   H     38.03000000    70.67000000   115.57000000
   H     38.22000000    70.32000000   113.79000000
   H     38.81000000    69.18000000   114.97000000
   N     41.90000000    67.38000000   114.91000000
   C     42.52000000    66.57000000   113.87000000
   C     41.55000000    66.37000000   112.72000000
   O     41.93000000    65.86000000   111.67000000
   C     43.19000000    65.33000000   114.44000000
   C     42.42000000    64.35000000   115.32000000
   O     44.32000000    65.71000000   115.20000000
   H     41.17000000    66.96000000   115.47000000
   H     43.39000000    67.14000000   113.53000000
   H     43.64000000    64.72000000   113.65000000
   H     44.73000000    66.52000000   114.91000000
   H     41.42000000    64.14000000   114.95000000
   H     42.99000000    63.43000000   115.42000000
   H     42.20000000    64.80000000   116.29000000
   N     40.25000000    66.56000000   112.98000000
   C     38.98000000    66.27000000   112.35000000
   C     38.58000000    64.80000000   112.38000000
   O     39.45000000    63.94000000   112.48000000
   C     38.97000000    66.88000000   110.95000000
   C     39.31000000    68.37000000   110.94000000
   O     37.66000000    66.84000000   110.42000000
   H     40.08000000    66.96000000   113.89000000
   H     38.15000000    66.64000000   112.96000000
   H     39.60000000    66.31000000   110.27000000
   H     37.66000000    67.59000000   109.82000000
   H     40.21000000    68.59000000   111.53000000
   H     39.39000000    68.77000000   109.93000000
   H     38.54000000    68.89000000   111.51000000
   N     37.28000000    64.50000000   112.33000000
   C     36.71000000    63.17000000   112.24000000
   C     35.66000000    62.79000000   113.28000000
   O     35.43000000    61.59000000   113.43000000
   C     36.17000000    62.88000000   110.84000000
   C     37.19000000    62.97000000   109.71000000
   C     38.44000000    62.12000000   109.87000000
   C     39.64000000    62.49000000   109.01000000
   N     39.16000000    62.61000000   107.62000000
   H     36.64000000    65.28000000   112.32000000
   H     37.56000000    62.52000000   112.41000000
   H     35.38000000    63.56000000   110.53000000
   H     35.77000000    61.87000000   110.92000000
   H     37.43000000    64.02000000   109.54000000
   H     36.71000000    62.55000000   108.82000000
   H     38.26000000    61.06000000   109.68000000
   H     38.78000000    62.19000000   110.91000000
   H     40.44000000    61.76000000   109.11000000
   H     40.00000000    63.45000000   109.37000000
   H     38.40000000    63.26000000   107.48000000
   H     39.89000000    62.85000000   106.96000000
   H     38.93000000    61.67000000   107.33000000
   N     35.06000000    63.66000000   114.09000000
   C     34.87000000    65.09000000   114.27000000
   C     34.60000000    65.85000000   112.98000000
   O     35.30000000    66.75000000   112.54000000
   C     35.93000000    65.69000000   115.19000000
   C     35.58000000    67.10000000   115.65000000
   C     36.10000000    67.33000000   117.07000000
   O     35.33000000    67.23000000   118.04000000
   O     37.30000000    67.57000000   117.35000000
   H     34.44000000    63.21000000   114.74000000
   H     33.94000000    65.22000000   114.83000000
   H     36.94000000    65.67000000   114.76000000
   H     35.98000000    65.03000000   116.05000000
   H     34.50000000    67.24000000   115.72000000
   H     35.93000000    67.84000000   114.93000000
   N     33.55000000    65.39000000   112.29000000
   C     33.12000000    65.94000000   111.02000000
   H     32.25300000    66.58200000   111.17800000
   H     33.93000000    66.52500000   110.58400000
   H     32.85200000    65.12800000   110.34400000
   H     32.85000000    64.97000000   112.89000000
  Ca     36.95000000    68.04000000   120.03700000
   O     39.09000000    69.38000000   119.17700000
   H     39.74000000    69.86000000   118.65700000
   H     39.15000000    69.78000000   120.04700000
   O     34.43000000    68.27000000   120.93700000
   H     33.87000000    69.04000000   121.04700000
   H     33.82000000    67.55000000   120.79700000
   O     39.00000000    66.42000000   119.92700000
   H     39.66000000    66.01000000   120.47700000
   H     39.48000000    66.70000000   119.14700000
   O     35.88000000    70.16000000   118.89700000
   H     35.08000000    70.66000000   119.05700000
   H     36.39000000    70.72000000   118.30700000
   O     36.07000000    65.28000000   120.44700000
   H     35.93000000    65.23000000   121.39700000
   H     35.20000000    65.48000000   120.09700000

Ca 1.00



