%chk=loop4.holoCaM.run23.water2.chk
%nprocshared=20
%mem=10GB
%nosave
#b3lyp/svp scf=(tight,noincore,xqc) Test 
#IOP(5/87=12) Density=Current Pop=(MK,readradii) iop(6/33=2) iop(6/42=6)

loop4.holoCaM.run23.water2 

   -3  1 
   C     86.81000000    31.49000000    12.96000000
   C     87.55000000    32.73000000    12.49000000
   O     87.19000000    33.30000000    11.47000000
   H     85.83900000    31.43900000    12.46800000
   H     87.39100000    30.60200000    12.70900000
   H     86.66800000    31.53800000    14.04000000
   N     88.67000000    32.99000000    13.17000000
   C     89.43000000    34.22000000    13.17000000
   C     89.98000000    34.39000000    11.76000000
   O     90.67000000    33.56000000    11.17000000
   C     90.49000000    34.06000000    14.26000000
   C     91.55000000    35.15000000    14.29000000
   O     92.63000000    34.86000000    14.83000000
   O     91.22000000    36.31000000    13.96000000
   H     88.74000000    32.44000000    14.02000000
   H     88.76000000    35.05000000    13.41000000
   H     90.95000000    33.08000000    14.26000000
   H     89.89000000    34.10000000    15.17000000
   N     89.58000000    35.49000000    11.11000000
   C     90.02000000    35.90000000     9.79000000
   C     91.46000000    36.38000000     9.65000000
   O     91.97000000    36.39000000     8.53000000
   C     89.16000000    36.88000000     9.01000000
   C     89.17000000    38.31000000     9.54000000
   C     87.70000000    36.43000000     8.97000000
   C     88.32000000    39.33000000     8.80000000
   H     88.98000000    36.11000000    11.64000000
   H     90.13000000    34.99000000     9.20000000
   H     89.51000000    36.96000000     7.98000000
   H     90.20000000    38.65000000     9.68000000
   H     88.68000000    38.22000000    10.51000000
   H     87.10000000    37.06000000     8.31000000
   H     87.74000000    35.38000000     8.68000000
   H     87.24000000    36.41000000     9.95000000
   H     88.66000000    39.39000000     7.76000000
   H     87.27000000    39.08000000     8.67000000
   H     88.39000000    40.30000000     9.29000000
   N     92.18000000    36.87000000    10.67000000
   C     93.38000000    37.68000000    10.57000000
   C     94.31000000    37.56000000    11.76000000
   O     95.10000000    38.48000000    11.97000000
   C     93.00000000    39.15000000    10.44000000
   C     91.94000000    39.58000000    11.45000000
   O     91.56000000    38.92000000    12.45000000
   O     91.50000000    40.72000000    11.22000000
   H     91.70000000    37.13000000    11.52000000
   H     93.96000000    37.35000000     9.72000000
   H     92.63000000    39.21000000     9.42000000
   H     93.91000000    39.75000000    10.51000000
   N     94.36000000    36.47000000    12.53000000
   C     95.62000000    36.17000000    13.20000000
   C     95.78000000    37.02000000    14.44000000
   O     96.78000000    37.72000000    14.59000000
   H     93.74000000    35.69000000    12.37000000
   H     96.42000000    36.29000000    12.47000000
   H     95.66000000    35.12000000    13.48000000
   N     94.80000000    36.92000000    15.35000000
   C     94.89000000    37.38000000    16.72000000
   C     94.43000000    36.36000000    17.75000000
   O     94.73000000    36.48000000    18.94000000
   C     94.22000000    38.73000000    16.94000000
   C     92.91000000    38.81000000    16.17000000
   O     91.98000000    38.14000000    16.67000000
   O     92.59000000    39.66000000    15.31000000
   H     93.97000000    36.41000000    15.07000000
   H     95.94000000    37.47000000    16.99000000
   H     94.87000000    39.52000000    16.55000000
   H     94.06000000    38.89000000    18.00000000
   N     93.63000000    35.37000000    17.36000000
   C     93.07000000    34.38000000    18.26000000
   C     91.69000000    34.68000000    18.81000000
   O     91.30000000    34.00000000    19.76000000
   H     93.58000000    35.21000000    16.37000000
   H     93.81000000    34.18000000    19.04000000
   H     93.12000000    33.40000000    17.78000000
   N     91.03000000    35.74000000    18.34000000
   C     89.77000000    36.23000000    18.87000000
   C     88.83000000    36.68000000    17.76000000
   O     89.27000000    36.78000000    16.61000000
   C     90.03000000    37.43000000    19.77000000
   C     90.93000000    37.15000000    20.97000000
   C     90.93000000    38.35000000    21.90000000
   N     91.40000000    39.53000000    21.48000000
   O     90.60000000    38.31000000    23.09000000
   H     91.49000000    36.34000000    17.67000000
   H     89.33000000    35.44000000    19.48000000
   H     89.09000000    37.86000000    20.11000000
   H     90.59000000    38.11000000    19.14000000
   H     91.99000000    37.11000000    20.70000000
   H     90.60000000    36.27000000    21.52000000
   H     91.85000000    39.57000000    20.58000000
   H     91.46000000    40.33000000    22.08000000
   N     87.53000000    36.80000000    18.04000000
   C     86.43000000    37.19000000    17.18000000
   C     85.89000000    38.58000000    17.44000000
   O     85.63000000    38.93000000    18.59000000
   C     85.47000000    36.00000000    17.08000000
   C     86.07000000    34.84000000    16.30000000
   C     84.84000000    35.50000000    18.38000000
   H     87.16000000    36.62000000    18.96000000
   H     86.93000000    37.37000000    16.23000000
   H     84.68000000    36.42000000    16.45000000
   H     86.34000000    35.17000000    15.29000000
   H     86.93000000    34.64000000    16.94000000
   H     85.40000000    33.99000000    16.19000000
   H     84.58000000    36.40000000    18.92000000
   H     84.06000000    34.79000000    18.12000000
   H     85.61000000    35.01000000    18.97000000
   N     85.69000000    39.44000000    16.43000000
   C     84.83000000    40.61000000    16.48000000
   C     83.37000000    40.21000000    16.30000000
   O     83.10000000    39.07000000    15.92000000
   C     85.35000000    41.75000000    15.61000000
   C     84.93000000    41.87000000    14.16000000
   N     85.84000000    41.34000000    13.33000000
   O     84.09000000    42.67000000    13.77000000
   H     86.03000000    39.15000000    15.53000000
   H     84.99000000    41.08000000    17.45000000
   H     86.41000000    41.72000000    15.88000000
   H     85.06000000    42.67000000    16.13000000
   H     86.53000000    40.78000000    13.80000000
   H     85.86000000    41.72000000    12.39000000
   N     82.43000000    41.15000000    16.23000000
   C     81.06000000    40.90000000    15.85000000
   C     80.96000000    40.22000000    14.49000000
   O     80.18000000    39.27000000    14.40000000
   C     80.30000000    42.21000000    16.06000000
   C     78.86000000    42.05000000    15.66000000
   C     77.93000000    41.45000000    16.52000000
   C     78.53000000    42.30000000    14.32000000
   C     76.61000000    41.21000000    16.10000000
   C     77.24000000    41.96000000    13.88000000
   C     76.32000000    41.32000000    14.73000000
   O     75.08000000    40.92000000    14.31000000
   H     82.67000000    42.09000000    16.53000000
   H     80.61000000    40.18000000    16.54000000
   H     80.77000000    43.01000000    15.48000000
   H     80.36000000    42.52000000    17.10000000
   H     78.24000000    41.27000000    17.53000000
   H     79.25000000    42.65000000    13.59000000
   H     75.90000000    40.74000000    16.77000000
   H     77.11000000    42.08000000    12.82000000
   H     74.96000000    41.23000000    13.41000000
   N     81.64000000    40.65000000    13.43000000
   C     81.54000000    40.09000000    12.10000000
   C     81.99000000    38.64000000    12.03000000
   O     81.37000000    37.86000000    11.29000000
   C     82.26000000    41.08000000    11.20000000
   C     82.06000000    40.85000000     9.70000000
   C     82.81000000    41.91000000     8.91000000
   O     84.06000000    41.94000000     8.95000000
   O     82.14000000    42.68000000     8.19000000
   H     82.16000000    41.50000000    13.57000000
   H     80.47000000    40.01000000    11.91000000
   H     83.34000000    40.95000000    11.33000000
   H     81.89000000    42.09000000    11.41000000
   H     81.02000000    40.93000000     9.41000000
   H     82.43000000    39.88000000     9.36000000
   N     83.03000000    38.29000000    12.79000000
   C     83.42000000    36.91000000    12.99000000
   C     82.55000000    36.04000000    13.89000000
   O     82.36000000    34.84000000    13.70000000
   C     84.88000000    36.99000000    13.45000000
   C     85.88000000    37.74000000    12.57000000
   C     87.22000000    37.94000000    13.27000000
   O     87.31000000    38.66000000    14.29000000
   O     88.28000000    37.44000000    12.83000000
   H     83.48000000    39.01000000    13.34000000
   H     83.29000000    36.44000000    12.02000000
   H     85.31000000    35.99000000    13.45000000
   H     84.95000000    37.46000000    14.42000000
   H     85.43000000    38.69000000    12.30000000
   H     86.00000000    37.33000000    11.56000000
   N     82.03000000    36.65000000    14.96000000
   C     81.39000000    36.01000000    16.09000000
   H     80.38600000    35.69300000    15.80700000
   H     81.97300000    35.14100000    16.39400000
   H     81.32700000    36.71400000    16.91900000
   H     82.27000000    37.61000000    15.13000000
  Ca     90.03000000    38.44000000    14.55000000
   O     89.79000000    41.00000000    13.47000000
   H     90.15000000    40.91000000    12.59000000
   H     89.67000000    41.95000000    13.58000000
   O     89.80000000    39.91000000    16.71000000
   H     89.73000000    40.51000000    17.45000000
   H     90.70000000    39.58000000    16.76000000

Ca 1.00



