%chk=loop3.apoCaM-CA-Ng.Init295.run70.water3.chk
%nprocshared=20
%mem=10GB
%nosave
#b3lyp/svp scf=(tight,noincore,xqc) Test 
#IOP(5/87=12) Density=Current Pop=(MK,readradii) iop(6/33=2) iop(6/42=6)

loop3.apoCaM-CA-Ng.Init295.run70.water3 

   0  1 
   C      4.15000000   -25.19000000    37.10000000
   C      3.68000000   -26.63000000    37.21000000
   O      3.55000000   -27.14000000    38.32000000
   H      5.11600000   -25.16100000    36.59500000
   H      3.42400000   -24.61300000    36.52700000
   H      4.24900000   -24.76200000    38.09800000
   N      3.47000000   -27.39000000    36.14000000
   C      3.07000000   -28.78000000    36.14000000
   C      4.20000000   -29.77000000    36.42000000
   O      5.23000000   -29.50000000    35.81000000
   C      2.46000000   -29.13000000    34.79000000
   C      1.74000000   -30.47000000    34.86000000
   O      2.36000000   -31.49000000    34.49000000
   O      0.59000000   -30.65000000    35.31000000
   H      3.54000000   -26.94000000    35.23000000
   H      2.39000000   -28.87000000    36.99000000
   H      3.20000000   -29.10000000    33.98000000
   H      1.67000000   -28.42000000    34.55000000
   N      4.01000000   -30.84000000    37.19000000
   C      5.08000000   -31.73000000    37.61000000
   C      5.73000000   -32.41000000    36.41000000
   O      6.94000000   -32.63000000    36.40000000
   C      4.56000000   -32.73000000    38.63000000
   C      3.65000000   -33.79000000    38.00000000
   C      3.02000000   -34.72000000    39.03000000
   C      2.88000000   -36.06000000    38.33000000
   N      1.85000000   -36.09000000    37.28000000
   H      3.07000000   -30.98000000    37.53000000
   H      5.86000000   -31.18000000    38.14000000
   H      4.07000000   -32.26000000    39.48000000
   H      5.30000000   -33.40000000    39.06000000
   H      4.29000000   -34.36000000    37.32000000
   H      2.85000000   -33.30000000    37.45000000
   H      2.09000000   -34.28000000    39.39000000
   H      3.75000000   -34.94000000    39.80000000
   H      2.58000000   -36.76000000    39.12000000
   H      3.89000000   -36.39000000    38.08000000
   H      1.62000000   -37.02000000    36.96000000
   H      1.03000000   -35.52000000    37.42000000
   H      2.28000000   -35.64000000    36.48000000
   N      5.03000000   -32.65000000    35.30000000
   C      5.52000000   -33.38000000    34.16000000
   C      5.56000000   -32.54000000    32.88000000
   O      5.87000000   -33.08000000    31.82000000
   C      4.69000000   -34.66000000    34.06000000
   C      3.18000000   -34.51000000    33.92000000
   O      2.71000000   -33.88000000    32.96000000
   O      2.46000000   -34.93000000    34.85000000
   H      4.04000000   -32.45000000    35.30000000
   H      6.52000000   -33.82000000    34.21000000
   H      4.95000000   -35.23000000    34.95000000
   H      5.13000000   -35.34000000    33.33000000
   N      5.41000000   -31.23000000    33.03000000
   C      5.51000000   -30.22000000    31.99000000
   C      4.31000000   -30.13000000    31.07000000
   O      4.47000000   -29.58000000    29.98000000
   H      5.25000000   -30.96000000    33.99000000
   H      6.45000000   -30.44000000    31.49000000
   H      5.54000000   -29.29000000    32.56000000
   N      3.18000000   -30.71000000    31.47000000
   C      2.01000000   -30.80000000    30.62000000
   C      0.77000000   -30.54000000    31.47000000
   O      0.27000000   -31.36000000    32.24000000
   C      2.03000000   -32.22000000    30.06000000
   C      0.76000000   -32.58000000    29.29000000
   N      0.67000000   -32.11000000    28.05000000
   O     -0.20000000   -33.10000000    29.86000000
   H      3.12000000   -31.07000000    32.41000000
   H      1.94000000   -30.13000000    29.77000000
   H      2.32000000   -32.89000000    30.88000000
   H      2.94000000   -32.37000000    29.48000000
   H      1.35000000   -31.57000000    27.52000000
   H     -0.28000000   -32.08000000    27.71000000
   N      0.27000000   -29.30000000    31.45000000
   C     -0.75000000   -28.73000000    32.30000000
   C     -2.12000000   -29.40000000    32.36000000
   O     -3.00000000   -28.72000000    32.87000000
   H      0.73000000   -28.70000000    30.78000000
   H     -0.96000000   -27.72000000    31.96000000
   H     -0.41000000   -28.58000000    33.32000000
   N     -2.25000000   -30.64000000    31.89000000
   C     -3.39000000   -31.47000000    32.26000000
   C     -3.16000000   -32.01000000    33.66000000
   O     -2.15000000   -32.66000000    33.91000000
   C     -3.54000000   -32.53000000    31.17000000
   C     -4.65000000   -33.53000000    31.39000000
   C     -4.50000000   -34.62000000    32.27000000
   C     -5.88000000   -33.45000000    30.72000000
   C     -5.52000000   -35.56000000    32.45000000
   C     -6.87000000   -34.43000000    30.82000000
   C     -6.70000000   -35.54000000    31.67000000
   O     -7.59000000   -36.58000000    31.74000000
   H     -1.46000000   -31.22000000    31.63000000
   H     -4.28000000   -30.84000000    32.29000000
   H     -2.57000000   -33.01000000    31.25000000
   H     -3.64000000   -31.97000000    30.24000000
   H     -3.57000000   -34.75000000    32.80000000
   H     -5.99000000   -32.64000000    30.02000000
   H     -5.36000000   -36.43000000    33.06000000
   H     -7.80000000   -34.37000000    30.29000000
   H     -8.35000000   -36.37000000    31.19000000
   N     -4.11000000   -31.75000000    34.57000000
   C     -4.25000000   -32.33000000    35.90000000
   C     -4.23000000   -33.85000000    35.97000000
   O     -3.25000000   -34.59000000    35.91000000
   C     -3.25000000   -31.58000000    36.78000000
   C     -3.38000000   -31.93000000    38.26000000
   C     -3.41000000   -30.07000000    36.63000000
   C     -2.28000000   -31.37000000    39.15000000
   H     -4.88000000   -31.15000000    34.34000000
   H     -5.24000000   -32.03000000    36.24000000
   H     -2.25000000   -31.86000000    36.48000000
   H     -3.36000000   -32.99000000    38.51000000
   H     -4.31000000   -31.48000000    38.61000000
   H     -4.46000000   -29.87000000    36.85000000
   H     -2.75000000   -29.62000000    37.38000000
   H     -3.18000000   -29.79000000    35.61000000
   H     -1.34000000   -31.15000000    38.65000000
   H     -2.54000000   -30.41000000    39.61000000
   H     -2.02000000   -32.06000000    39.96000000
   N     -5.34000000   -34.39000000    36.48000000
   C     -5.50000000   -35.74000000    36.99000000
   C     -6.91000000   -36.31000000    37.05000000
   O     -7.13000000   -37.51000000    36.86000000
   C     -4.73000000   -35.86000000    38.30000000
   O     -5.33000000   -35.03000000    39.27000000
   H     -6.07000000   -33.81000000    36.85000000
   H     -4.96000000   -36.42000000    36.33000000
   H     -3.69000000   -35.55000000    38.16000000
   H     -4.63000000   -36.90000000    38.59000000
   H     -4.74000000   -34.96000000    40.02000000
   N     -7.92000000   -35.53000000    37.43000000
   C     -9.32000000   -35.87000000    37.59000000
   C     -9.48000000   -37.13000000    38.43000000
   O    -10.13000000   -38.09000000    38.02000000
   C     -9.80000000   -36.00000000    36.15000000
   H     -7.60000000   -34.58000000    37.62000000
   H     -9.83000000   -35.07000000    38.12000000
   H    -10.88000000   -36.01000000    36.25000000
   H     -9.44000000   -35.15000000    35.58000000
   H     -9.32000000   -36.90000000    35.74000000
   N     -8.87000000   -37.30000000    39.60000000
   C     -8.29000000   -36.26000000    40.43000000
   C     -9.26000000   -35.64000000    41.42000000
   O    -10.02000000   -36.29000000    42.14000000
   C     -7.24000000   -37.00000000    41.26000000
   H     -8.77000000   -38.26000000    39.89000000
   H     -7.86000000   -35.47000000    39.82000000
   H     -6.33000000   -37.21000000    40.70000000
   H     -6.99000000   -36.49000000    42.19000000
   H     -7.52000000   -38.00000000    41.58000000
   N     -9.28000000   -34.31000000    41.54000000
   C     -8.47000000   -33.26000000    40.98000000
   C     -9.27000000   -32.01000000    40.62000000
   O     -8.85000000   -31.27000000    39.74000000
   C     -7.42000000   -32.88000000    42.02000000
   C     -6.25000000   -32.05000000    41.47000000
   C     -5.09000000   -31.77000000    42.41000000
   O     -5.21000000   -30.75000000    43.12000000
   O     -4.17000000   -32.59000000    42.64000000
   H    -10.01000000   -34.07000000    42.20000000
   H     -7.98000000   -33.66000000    40.09000000
   H     -7.17000000   -33.74000000    42.63000000
   H     -7.93000000   -32.23000000    42.73000000
   H     -6.72000000   -31.15000000    41.06000000
   H     -5.91000000   -32.52000000    40.55000000
   N    -10.43000000   -31.78000000    41.22000000
   C    -11.38000000   -30.74000000    40.87000000
   H    -12.27700000   -30.84800000    41.48000000
   H    -10.93300000   -29.76300000    41.05200000
   H    -11.64500000   -30.82900000    39.81600000
   H    -10.64000000   -32.38000000    42.01000000
  Ca      0.44000000   -33.17200000    34.16000000
   O     -0.24200000   -34.50200000    31.97000000
   H     -0.03200000   -35.36200000    31.60000000
   H     -0.17200000   -33.90200000    31.22000000
   O     -0.88200000   -35.55200000    35.12000000
   H     -1.68200000   -35.38200000    35.62000000
   H     -0.98200000   -36.45200000    34.81000000
   O      0.26000000   -33.24200000    36.77000000
   H     -0.44000000   -33.69200000    37.24000000
   H      0.45000000   -32.47200000    37.31000000

Ca 1.00



