%chk=loop2.holoCaM-CaMKII.run97.water1.chk
%nprocshared=20
%mem=10GB
%nosave
#b3lyp/svp scf=(tight,noincore,xqc) Test 
#IOP(5/87=12) Density=Current Pop=(MK,readradii) iop(6/33=2) iop(6/42=6)

loop2.holoCaM-CaMKII.run97.water1 

   -2  1 
   C     34.89000000    33.13000000   -30.27700000
   C     34.85000000    31.87000000   -31.12700000
   O     35.81000000    31.47000000   -31.76700000
   H     35.11500000    33.98800000   -30.91100000
   H     33.92200000    33.27600000   -29.79800000
   H     35.66200000    33.03000000   -29.51400000
   N     33.69000000    31.21000000   -31.21700000
   C     33.48000000    30.06000000   -32.07700000
   C     33.68000000    30.51000000   -33.51700000
   O     33.00000000    31.45000000   -33.92700000
   C     32.04000000    29.62000000   -31.82700000
   C     31.64000000    28.46000000   -32.72700000
   O     32.50000000    27.69000000   -33.21700000
   O     30.41000000    28.35000000   -32.90700000
   H     32.95000000    31.45000000   -30.58700000
   H     34.11000000    29.22000000   -31.76700000
   H     31.34000000    30.40000000   -32.12700000
   H     31.81000000    29.39000000   -30.78700000
   N     34.57000000    29.89000000   -34.29700000
   C     34.70000000    30.34000000   -35.66700000
   C     34.18000000    29.39000000   -36.73700000
   O     34.10000000    29.75000000   -37.90700000
   C     36.11000000    30.73000000   -36.08700000
   H     35.14000000    29.13000000   -33.95700000
   H     34.12000000    31.24000000   -35.87700000
   H     36.42000000    31.53000000   -35.40700000
   H     36.85000000    29.93000000   -36.13700000
   H     36.06000000    31.10000000   -37.11700000
   N     33.77000000    28.16000000   -36.41700000
   C     32.97000000    27.29000000   -37.25700000
   C     31.50000000    27.24000000   -36.89700000
   O     30.74000000    26.45000000   -37.45700000
   C     33.65000000    25.94000000   -37.42700000
   C     33.87000000    25.00000000   -36.24700000
   O     33.31000000    25.29000000   -35.16700000
   O     34.55000000    23.98000000   -36.48700000
   H     33.79000000    27.93000000   -35.42700000
   H     33.05000000    27.77000000   -38.23700000
   H     34.67000000    26.11000000   -37.75700000
   H     33.10000000    25.35000000   -38.16700000
   N     31.03000000    28.06000000   -35.95700000
   C     29.61000000    28.30000000   -35.81700000
   C     28.78000000    27.22000000   -35.12700000
   O     27.57000000    27.41000000   -35.03700000
   H     31.73000000    28.53000000   -35.39700000
   H     29.14000000    28.58000000   -36.75700000
   H     29.60000000    29.20000000   -35.19700000
   N     29.38000000    26.11000000   -34.71700000
   C     28.64000000    24.98000000   -34.18700000
   C     28.21000000    24.96000000   -32.72700000
   O     27.69000000    23.96000000   -32.23700000
   C     29.40000000    23.70000000   -34.51700000
   C     30.72000000    23.55000000   -33.76700000
   N     31.57000000    22.61000000   -34.20700000
   O     31.11000000    24.34000000   -32.91700000
   H     30.38000000    26.16000000   -34.62700000
   H     27.72000000    24.93000000   -34.75700000
   H     29.61000000    23.64000000   -35.58700000
   H     28.88000000    22.79000000   -34.20700000
   H     31.29000000    22.01000000   -34.96700000
   H     32.51000000    22.64000000   -33.83700000
   N     28.38000000    26.11000000   -32.07700000
   C     27.88000000    26.34000000   -30.73700000
   C     28.73000000    25.77000000   -29.60700000
   O     28.29000000    25.78000000   -28.45700000
   H     28.95000000    26.85000000   -32.47700000
   H     27.00000000    25.71000000   -30.62700000
   H     27.60000000    27.38000000   -30.58700000
   N     29.92000000    25.26000000   -29.93700000
   C     30.88000000    24.80000000   -28.95700000
   C     32.30000000    25.25000000   -29.23700000
   O     32.64000000    25.65000000   -30.34700000
   C     31.00000000    23.29000000   -28.76700000
   C     29.75000000    22.64000000   -28.18700000
   O     31.27000000    22.73000000   -30.03700000
   H     30.15000000    25.17000000   -30.91700000
   H     30.56000000    25.32000000   -28.05700000
   H     31.81000000    23.16000000   -28.04700000
   H     31.17000000    21.78000000   -29.98700000
   H     29.08000000    22.50000000   -29.03700000
   H     30.03000000    21.68000000   -27.77700000
   H     29.32000000    23.26000000   -27.39700000
   N     33.08000000    25.33000000   -28.15700000
   C     34.41000000    25.92000000   -28.22700000
   C     35.35000000    24.81000000   -28.65700000
   O     35.28000000    23.71000000   -28.11700000
   C     34.78000000    26.42000000   -26.83700000
   C     33.95000000    27.63000000   -26.41700000
   C     36.24000000    26.74000000   -26.50700000
   C     34.25000000    28.98000000   -27.06700000
   H     32.75000000    24.86000000   -27.32700000
   H     34.54000000    26.68000000   -28.99700000
   H     34.48000000    25.66000000   -26.11700000
   H     34.12000000    27.75000000   -25.34700000
   H     32.89000000    27.46000000   -26.60700000
   H     36.86000000    27.06000000   -27.34700000
   H     36.27000000    27.50000000   -25.72700000
   H     36.77000000    25.87000000   -26.13700000
   H     35.32000000    29.17000000   -27.14700000
   H     33.92000000    28.97000000   -28.10700000
   H     33.68000000    29.76000000   -26.58700000
   N     36.25000000    25.07000000   -29.60700000
   C     37.47000000    24.33000000   -29.80700000
   C     38.70000000    25.03000000   -29.24700000
   O     38.57000000    26.19000000   -28.84700000
   C     37.64000000    24.07000000   -31.29700000
   C     36.40000000    23.49000000   -31.96700000
   O     36.08000000    22.28000000   -31.90700000
   O     35.73000000    24.27000000   -32.67700000
   H     36.10000000    25.93000000   -30.11700000
   H     37.35000000    23.35000000   -29.33700000
   H     38.46000000    23.38000000   -31.47700000
   H     37.91000000    24.95000000   -31.87700000
   N     39.86000000    24.39000000   -29.14700000
   C     41.10000000    24.99000000   -28.69700000
   C     41.52000000    26.28000000   -29.39700000
   O     41.75000000    27.19000000   -28.59700000
   C     42.26000000    23.99000000   -28.63700000
   C     43.50000000    24.54000000   -27.98700000
   C     44.74000000    24.68000000   -28.62700000
   C     43.35000000    24.86000000   -26.63700000
   C     45.77000000    25.29000000   -27.88700000
   C     44.37000000    25.51000000   -25.93700000
   C     45.61000000    25.72000000   -26.55700000
   H     39.85000000    23.44000000   -29.49700000
   H     40.83000000    25.29000000   -27.68700000
   H     42.55000000    23.75000000   -29.65700000
   H     41.95000000    23.05000000   -28.17700000
   H     44.98000000    24.34000000   -29.61700000
   H     42.42000000    24.78000000   -26.08700000
   H     46.73000000    25.40000000   -28.35700000
   H     44.26000000    25.92000000   -24.93700000
   H     46.39000000    26.23000000   -26.02700000
   N     41.63000000    26.40000000   -30.71700000
   C     41.94000000    27.68000000   -31.32700000
   C     40.93000000    28.81000000   -31.15700000
   O     41.13000000    29.92000000   -31.64700000
   C     42.15000000    27.29000000   -32.78700000
   C     41.25000000    26.10000000   -33.08700000
   C     41.43000000    25.40000000   -31.74700000
   H     42.90000000    27.99000000   -30.91700000
   H     41.82000000    28.13000000   -33.41700000
   H     43.18000000    27.02000000   -33.00700000
   H     40.21000000    26.42000000   -33.17700000
   H     41.51000000    25.50000000   -33.96700000
   H     40.54000000    24.79000000   -31.56700000
   H     42.32000000    24.78000000   -31.84700000
   N     39.83000000    28.39000000   -30.53700000
   C     38.79000000    29.35000000   -30.20700000
   C     38.82000000    29.71000000   -28.72700000
   O     38.64000000    30.85000000   -28.29700000
   C     37.42000000    28.80000000   -30.60700000
   C     37.34000000    28.31000000   -32.04700000
   C     36.10000000    27.49000000   -32.38700000
   O     35.71000000    27.34000000   -33.55700000
   O     35.37000000    26.99000000   -31.49700000
   H     39.73000000    27.41000000   -30.31700000
   H     39.01000000    30.29000000   -30.69700000
   H     36.72000000    29.62000000   -30.42700000
   H     37.11000000    28.08000000   -29.84700000
   H     38.19000000    27.66000000   -32.25700000
   H     37.59000000    29.12000000   -32.72700000
   N     39.25000000    28.74000000   -27.91700000
   C     39.68000000    29.01000000   -26.56700000
   H     40.54200000    29.67700000   -26.58700000
   H     38.86800000    29.48200000   -26.01400000
   H     39.95700000    28.07500000   -26.07900000
   H     39.53000000    27.87000000   -28.34700000
  Ca     33.64000000    25.63000000   -32.71700000
   O     33.38000000    23.14000000   -31.61700000
   H     33.99000000    22.45000000   -31.33700000
   H     32.63000000    23.04000000   -31.02700000

Ca 1.00



