%chk=loop2.apoCaM-CA-Ng.Init31.run57.water4.chk
%nprocshared=20
%mem=10GB
%nosave
#b3lyp/svp scf=(tight,noincore,xqc) Test 
#IOP(5/87=12) Density=Current Pop=(MK,readradii) iop(6/33=2) iop(6/42=6)

loop2.apoCaM-CA-Ng.Init31.run57.water4 

   -2  1 
   C    107.13000000    74.50000000     6.15000000
   C    105.92000000    74.43000000     5.24000000
   O    104.99000000    73.71000000     5.60000000
   H    107.92100000    75.06700000     5.65900000
   H    106.85600000    74.99300000     7.08300000
   H    107.48500000    73.49100000     6.36200000
   N    105.69000000    75.15000000     4.14000000
   C    106.46000000    76.26000000     3.61000000
   C    106.73000000    76.34000000     2.12000000
   O    105.96000000    75.99000000     1.23000000
   C    105.76000000    77.54000000     4.04000000
   C    104.27000000    77.68000000     3.73000000
   O    103.87000000    77.69000000     2.55000000
   O    103.51000000    77.76000000     4.73000000
   H    104.85000000    75.00000000     3.59000000
   H    107.42000000    76.45000000     4.09000000
   H    106.30000000    78.35000000     3.55000000
   H    106.01000000    77.66000000     5.09000000
   N    107.87000000    76.92000000     1.74000000
   C    108.39000000    77.14000000     0.41000000
   C    107.57000000    78.08000000    -0.47000000
   O    107.81000000    79.28000000    -0.59000000
   C    108.68000000    75.78000000    -0.21000000
   H    108.53000000    77.07000000     2.49000000
   H    109.36000000    77.62000000     0.56000000
   H    109.04000000    75.88000000    -1.23000000
   H    109.45000000    75.20000000     0.31000000
   H    107.83000000    75.11000000    -0.32000000
   N    106.64000000    77.48000000    -1.21000000
   C    105.73000000    78.32000000    -1.97000000
   C    104.57000000    78.89000000    -1.17000000
   O    104.04000000    78.31000000    -0.23000000
   C    105.16000000    77.46000000    -3.10000000
   C    104.62000000    76.07000000    -2.80000000
   O    104.59000000    75.28000000    -3.77000000
   O    104.16000000    75.77000000    -1.68000000
   H    106.48000000    76.48000000    -1.20000000
   H    106.27000000    79.11000000    -2.48000000
   H    105.93000000    77.49000000    -3.87000000
   H    104.42000000    78.01000000    -3.69000000
   N    104.18000000    80.12000000    -1.52000000
   C    103.07000000    80.82000000    -0.91000000
   C    101.72000000    80.58000000    -1.57000000
   O    101.67000000    80.71000000    -2.79000000
   H    104.70000000    80.54000000    -2.28000000
   H    103.31000000    81.88000000    -0.96000000
   H    102.94000000    80.48000000     0.12000000
   N    100.71000000    80.24000000    -0.77000000
   C     99.47000000    79.75000000    -1.33000000
   C     98.16000000    80.39000000    -0.91000000
   O     98.02000000    81.05000000     0.12000000
   C     99.39000000    78.25000000    -1.07000000
   C    100.44000000    77.41000000    -1.79000000
   N    100.61000000    77.33000000    -3.11000000
   O    101.35000000    77.05000000    -1.05000000
   H    100.80000000    80.16000000     0.24000000
   H     99.53000000    79.88000000    -2.41000000
   H     98.41000000    77.83000000    -1.29000000
   H     99.53000000    78.10000000     0.01000000
   H     99.93000000    77.78000000    -3.70000000
   H    101.30000000    76.67000000    -3.44000000
   N     97.17000000    80.22000000    -1.79000000
   C     95.87000000    80.85000000    -1.74000000
   C     94.83000000    80.45000000    -2.77000000
   O     95.24000000    80.22000000    -3.91000000
   H     97.35000000    79.52000000    -2.50000000
   H     95.94000000    81.94000000    -1.71000000
   H     95.49000000    80.56000000    -0.76000000
   N     93.55000000    80.33000000    -2.41000000
   C     92.98000000    80.96000000    -1.24000000
   C     93.19000000    80.20000000     0.06000000
   O     93.26000000    80.77000000     1.14000000
   C     91.48000000    81.19000000    -1.46000000
   C     91.29000000    82.26000000    -2.52000000
   O     90.82000000    80.02000000    -1.91000000
   H     92.95000000    79.98000000    -3.16000000
   H     93.52000000    81.90000000    -1.13000000
   H     91.05000000    81.40000000    -0.48000000
   H     89.91000000    80.24000000    -2.13000000
   H     90.29000000    82.14000000    -2.95000000
   H     91.37000000    83.28000000    -2.13000000
   H     91.96000000    82.23000000    -3.38000000
   N     93.17000000    78.87000000    -0.01000000
   C     93.10000000    77.89000000     1.05000000
   C     92.00000000    78.18000000     2.06000000
   O     92.16000000    78.66000000     3.18000000
   C     94.44000000    77.64000000     1.74000000
   C     95.66000000    77.52000000     0.83000000
   C     94.41000000    76.40000000     2.63000000
   C     95.49000000    76.55000000    -0.34000000
   H     93.23000000    78.48000000    -0.94000000
   H     92.82000000    76.97000000     0.53000000
   H     94.53000000    78.46000000     2.46000000
   H     96.57000000    77.19000000     1.31000000
   H     95.85000000    78.51000000     0.41000000
   H     95.39000000    76.12000000     3.02000000
   H     93.70000000    76.58000000     3.43000000
   H     93.94000000    75.58000000     2.10000000
   H     94.63000000    76.84000000    -0.94000000
   H     96.33000000    76.45000000    -1.02000000
   H     95.24000000    75.56000000     0.03000000
   N     90.73000000    77.91000000     1.72000000
   C     90.16000000    77.45000000     0.47000000
   C     90.01000000    75.94000000     0.51000000
   O     90.03000000    75.27000000    -0.52000000
   C     88.79000000    78.07000000     0.22000000
   C     87.70000000    77.82000000     1.25000000
   O     87.87000000    77.24000000     2.35000000
   O     86.53000000    78.13000000     0.92000000
   H     90.05000000    78.16000000     2.42000000
   H     90.90000000    77.59000000    -0.32000000
   H     88.41000000    77.82000000    -0.77000000
   H     88.96000000    79.15000000     0.23000000
   N     90.08000000    75.36000000     1.72000000
   C     90.01000000    73.92000000     1.86000000
   C     88.73000000    73.34000000     1.27000000
   O     87.76000000    74.06000000     1.08000000
   C     90.25000000    73.55000000     3.32000000
   C     89.05000000    73.66000000     4.23000000
   C     88.75000000    74.92000000     4.76000000
   C     88.29000000    72.55000000     4.61000000
   C     87.73000000    75.05000000     5.71000000
   C     87.20000000    72.72000000     5.47000000
   C     86.97000000    73.94000000     6.12000000
   H     90.17000000    75.96000000     2.52000000
   H     90.85000000    73.61000000     1.24000000
   H     91.00000000    74.30000000     3.59000000
   H     90.73000000    72.57000000     3.37000000
   H     89.35000000    75.78000000     4.51000000
   H     88.46000000    71.57000000     4.18000000
   H     87.47000000    76.02000000     6.11000000
   H     86.51000000    71.92000000     5.72000000
   H     86.08000000    74.13000000     6.70000000
   N     88.67000000    72.03000000     0.99000000
   C     89.69000000    71.01000000     1.14000000
   C     90.78000000    71.10000000     0.09000000
   O     90.89000000    72.05000000    -0.68000000
   C     88.87000000    69.74000000     0.95000000
   C     87.93000000    70.05000000    -0.22000000
   C     87.60000000    71.48000000     0.19000000
   H     90.26000000    71.01000000     2.07000000
   H     89.31000000    68.75000000     0.90000000
   H     88.18000000    69.69000000     1.79000000
   H     88.30000000    69.97000000    -1.24000000
   H     87.00000000    69.48000000    -0.15000000
   H     87.49000000    72.06000000    -0.73000000
   H     86.65000000    71.50000000     0.72000000
   N     91.68000000    70.11000000     0.04000000
   C     92.94000000    70.12000000    -0.66000000
   C     94.07000000    69.56000000     0.20000000
   O     94.72000000    68.61000000    -0.23000000
   C     92.85000000    69.33000000    -1.97000000
   C     91.82000000    69.95000000    -2.90000000
   C     91.80000000    69.20000000    -4.23000000
   O     90.70000000    68.91000000    -4.75000000
   O     92.83000000    68.82000000    -4.82000000
   H     91.65000000    69.46000000     0.81000000
   H     93.27000000    71.12000000    -0.95000000
   H     92.65000000    68.26000000    -1.83000000
   H     93.82000000    69.43000000    -2.46000000
   H     92.00000000    71.02000000    -2.99000000
   H     90.88000000    69.75000000    -2.39000000
   N     94.44000000    70.04000000     1.38000000
   C     93.70000000    70.96000000     2.23000000
   H     92.71600000    70.54400000     2.44400000
   H     94.24200000    71.10900000     3.16400000
   H     93.58600000    71.91600000     1.71900000
   H     95.16000000    69.51000000     1.86000000
  Ca    103.12500000    76.18000000     0.65000000
   O    100.84500000    76.53000000     2.09000000
   H    100.34500000    77.33000000     1.94000000
   H    100.29500000    76.01000000     2.68000000
   O    103.10500000    74.69000000     3.12000000
   H    102.70500000    73.90000000     3.48000000
   H    102.75500000    75.40000000     3.65000000
   O    101.28500000    74.14000000     0.35000000
   H    101.25500000    73.71000000    -0.50000000
   H    100.37500000    74.31000000     0.57000000
   O    104.26500000    73.83000000     0.60000000
   H    104.37500000    73.14000000     1.26000000
   H    104.25500000    73.36000000    -0.23000000

Ca 1.00



