%chk=loop4.apoCaM-CA-Ng.Init295.run90.water1.chk
%nprocshared=20
%mem=10GB
%nosave
#b3lyp/svp scf=(tight,noincore,xqc) Test 
#IOP(5/87=12) Density=Current Pop=(MK,readradii) iop(6/33=2) iop(6/42=6)

loop4.apoCaM-CA-Ng.Init295.run90.water1 

   -3  1 
   C      7.25000000   -33.38000000    53.99000000
   C      6.34000000   -33.38000000    52.76000000
   O      5.70000000   -32.40000000    52.41000000
   H      8.13500000   -32.77700000    53.78700000
   H      6.71300000   -32.96000000    54.84000000
   H      7.55200000   -34.40200000    54.21900000
   N      6.26000000   -34.53000000    52.08000000
   C      5.45000000   -34.92000000    50.94000000
   C      5.67000000   -34.16000000    49.64000000
   O      4.79000000   -34.17000000    48.78000000
   C      4.02000000   -35.30000000    51.28000000
   C      3.90000000   -36.25000000    52.47000000
   O      2.86000000   -36.07000000    53.15000000
   O      4.70000000   -37.08000000    52.95000000
   H      6.69000000   -35.33000000    52.52000000
   H      5.93000000   -35.86000000    50.66000000
   H      3.66000000   -35.85000000    50.41000000
   H      3.46000000   -34.37000000    51.45000000
   N      6.87000000   -33.61000000    49.45000000
   C      7.31000000   -32.96000000    48.24000000
   C      7.67000000   -34.03000000    47.22000000
   O      8.37000000   -34.99000000    47.54000000
   C      8.50000000   -32.05000000    48.56000000
   C      8.23000000   -31.00000000    49.64000000
   C      8.93000000   -31.34000000    47.28000000
   C      6.97000000   -30.17000000    49.44000000
   H      7.44000000   -33.72000000    50.28000000
   H      6.54000000   -32.24000000    47.96000000
   H      9.31000000   -32.70000000    48.90000000
   H      9.06000000   -30.32000000    49.83000000
   H      8.10000000   -31.61000000    50.53000000
   H      9.61000000   -30.56000000    47.62000000
   H      9.41000000   -32.05000000    46.60000000
   H      8.19000000   -30.88000000    46.63000000
   H      6.86000000   -29.67000000    48.48000000
   H      6.12000000   -30.84000000    49.59000000
   H      6.88000000   -29.45000000    50.26000000
   N      7.36000000   -34.01000000    45.93000000
   C      6.33000000   -33.11000000    45.44000000
   C      4.91000000   -33.63000000    45.63000000
   O      4.03000000   -32.85000000    45.99000000
   C      6.50000000   -32.68000000    43.98000000
   C      7.85000000   -32.09000000    43.62000000
   O      7.91000000   -30.87000000    43.35000000
   O      8.96000000   -32.66000000    43.67000000
   H      7.60000000   -34.77000000    45.32000000
   H      6.37000000   -32.16000000    45.97000000
   H      5.74000000   -31.93000000    43.79000000
   H      6.37000000   -33.57000000    43.37000000
   N      4.72000000   -34.95000000    45.60000000
   C      3.42000000   -35.55000000    45.82000000
   C      2.29000000   -35.07000000    44.91000000
   O      2.38000000   -35.02000000    43.69000000
   H      5.37000000   -35.50000000    45.07000000
   H      3.17000000   -35.43000000    46.87000000
   H      3.51000000   -36.63000000    45.70000000
   N      1.17000000   -34.60000000    45.46000000
   C      0.05000000   -33.90000000    44.86000000
   C     -0.02000000   -32.41000000    45.16000000
   O     -0.84000000   -31.73000000    44.55000000
   C     -1.26000000   -34.61000000    45.19000000
   C     -1.46000000   -34.89000000    46.68000000
   O     -1.59000000   -33.93000000    47.48000000
   O     -1.59000000   -36.06000000    47.10000000
   H      1.21000000   -34.58000000    46.47000000
   H      0.11000000   -33.96000000    43.78000000
   H     -1.16000000   -35.56000000    44.66000000
   H     -2.15000000   -34.16000000    44.75000000
   N      0.71000000   -31.93000000    46.17000000
   C      0.58000000   -30.55000000    46.60000000
   C     -0.77000000   -30.18000000    47.20000000
   O     -0.93000000   -29.02000000    47.58000000
   H      1.56000000   -32.42000000    46.38000000
   H      0.78000000   -29.84000000    45.80000000
   H      1.31000000   -30.44000000    47.41000000
   N     -1.78000000   -31.05000000    47.19000000
   C     -3.04000000   -30.94000000    47.88000000
   C     -3.01000000   -30.38000000    49.29000000
   O     -3.46000000   -29.28000000    49.62000000
   C     -3.97000000   -30.22000000    46.90000000
   C     -4.50000000   -31.32000000    45.99000000
   C     -5.18000000   -30.80000000    44.73000000
   N     -5.48000000   -31.73000000    43.82000000
   O     -5.59000000   -29.65000000    44.60000000
   H     -1.58000000   -31.91000000    46.69000000
   H     -3.45000000   -31.94000000    47.98000000
   H     -3.52000000   -29.43000000    46.30000000
   H     -4.74000000   -29.75000000    47.51000000
   H     -5.13000000   -32.00000000    46.57000000
   H     -3.64000000   -31.84000000    45.58000000
   H     -5.11000000   -32.66000000    43.98000000
   H     -6.21000000   -31.58000000    43.13000000
   N     -2.39000000   -31.13000000    50.20000000
   C     -2.07000000   -30.86000000    51.59000000
   C     -2.76000000   -31.82000000    52.56000000
   O     -3.05000000   -32.98000000    52.30000000
   C     -0.56000000   -30.86000000    51.83000000
   C      0.36000000   -31.95000000    51.31000000
   C     -0.02000000   -29.51000000    51.38000000
   H     -2.22000000   -32.05000000    49.82000000
   H     -2.44000000   -29.85000000    51.78000000
   H     -0.45000000   -30.94000000    52.92000000
   H      0.30000000   -31.93000000    50.22000000
   H      1.42000000   -31.73000000    51.49000000
   H      0.02000000   -32.94000000    51.63000000
   H      0.12000000   -29.58000000    50.30000000
   H     -0.53000000   -28.61000000    51.74000000
   H      0.92000000   -29.57000000    51.92000000
   N     -3.11000000   -31.34000000    53.75000000
   C     -3.59000000   -32.00000000    54.94000000
   C     -2.96000000   -31.41000000    56.19000000
   O     -2.77000000   -30.20000000    56.34000000
   C     -5.11000000   -31.89000000    55.05000000
   C     -5.72000000   -32.84000000    56.08000000
   N     -5.93000000   -34.10000000    55.68000000
   O     -5.91000000   -32.51000000    57.24000000
   H     -2.82000000   -30.38000000    53.89000000
   H     -3.34000000   -33.06000000    54.93000000
   H     -5.54000000   -32.15000000    54.08000000
   H     -5.29000000   -30.87000000    55.39000000
   H     -5.71000000   -34.36000000    54.73000000
   H     -6.05000000   -34.77000000    56.43000000
   N     -2.64000000   -32.25000000    57.18000000
   C     -2.04000000   -31.83000000    58.43000000
   C     -1.14000000   -32.80000000    59.17000000
   O     -1.12000000   -32.75000000    60.40000000
   C     -3.18000000   -31.35000000    59.31000000
   C     -2.86000000   -30.09000000    60.09000000
   C     -2.41000000   -28.92000000    59.47000000
   C     -2.99000000   -30.14000000    61.48000000
   C     -2.03000000   -27.87000000    60.32000000
   C     -2.65000000   -29.07000000    62.31000000
   C     -2.20000000   -27.87000000    61.72000000
   O     -1.88000000   -26.72000000    62.38000000
   H     -2.81000000   -33.24000000    57.05000000
   H     -1.34000000   -31.02000000    58.20000000
   H     -3.48000000   -32.12000000    60.02000000
   H     -4.07000000   -31.01000000    58.78000000
   H     -2.28000000   -28.84000000    58.40000000
   H     -3.32000000   -31.02000000    62.01000000
   H     -1.55000000   -27.00000000    59.90000000
   H     -2.66000000   -29.18000000    63.39000000
   H     -2.09000000   -26.87000000    63.31000000
   N     -0.49000000   -33.75000000    58.49000000
   C      0.39000000   -34.73000000    59.09000000
   C      1.47000000   -34.17000000    60.01000000
   O      1.54000000   -34.64000000    61.14000000
   C      0.97000000   -35.66000000    58.03000000
   C     -0.01000000   -36.71000000    57.50000000
   C      0.52000000   -37.59000000    56.38000000
   O     -0.24000000   -37.64000000    55.38000000
   O      1.66000000   -38.09000000    56.28000000
   H     -0.70000000   -33.78000000    57.50000000
   H     -0.30000000   -35.30000000    59.71000000
   H      1.85000000   -36.12000000    58.48000000
   H      1.25000000   -35.11000000    57.13000000
   H     -0.83000000   -36.12000000    57.09000000
   H     -0.28000000   -37.40000000    58.30000000
   N      2.22000000   -33.09000000    59.78000000
   C      2.50000000   -32.42000000    58.53000000
   C      1.98000000   -31.01000000    58.33000000
   O      1.45000000   -30.41000000    59.27000000
   C      4.02000000   -32.50000000    58.49000000
   C      4.77000000   -33.83000000    58.50000000
   C      4.14000000   -34.85000000    57.57000000
   O      3.79000000   -34.59000000    56.40000000
   O      3.98000000   -36.04000000    57.93000000
   H      2.80000000   -32.83000000    60.57000000
   H      2.10000000   -33.05000000    57.72000000
   H      4.45000000   -31.91000000    59.30000000
   H      4.33000000   -32.03000000    57.55000000
   H      4.83000000   -34.31000000    59.47000000
   H      5.83000000   -33.65000000    58.31000000
   N      2.00000000   -30.50000000    57.10000000
   C      1.79000000   -29.14000000    56.64000000
   H      0.92200000   -28.71600000    57.14500000
   H      2.67100000   -28.53900000    56.86700000
   H      1.61900000   -29.14200000    55.56400000
   H      2.46000000   -31.07000000    56.41000000
  Ca      3.89000000   -36.93600000    55.42000000
   O      3.38000000   -39.54600000    54.64000000
   H      3.68000000   -40.45600000    54.63000000
   H      2.48000000   -39.59600000    54.31000000

Ca 1.00



