%chk=loop2.apoCaM-CA-Ng.Init293.run59.water6.chk
%nprocshared=20
%mem=10GB
%nosave
#b3lyp/svp scf=(tight,noincore,xqc) Test 
#IOP(5/87=12) Density=Current Pop=(MK,readradii) iop(6/33=2) iop(6/42=6)

loop2.apoCaM-CA-Ng.Init293.run59.water6 

   -2  1 
   C     73.41000000    93.17000000    70.20000000
   C     74.78000000    92.92000000    70.82000000
   O     75.05000000    93.24000000    71.98000000
   H     72.72400000    93.52700000    70.96800000
   H     73.49700000    93.92100000    69.41500000
   H     73.02800000    92.24200000    69.77500000
   N     75.77000000    92.47000000    70.05000000
   C     77.18000000    92.46000000    70.35000000
   C     77.80000000    93.75000000    70.89000000
   O     78.67000000    93.80000000    71.76000000
   C     77.86000000    92.10000000    69.03000000
   C     79.27000000    91.63000000    69.35000000
   O     79.49000000    90.41000000    69.47000000
   O     80.17000000    92.48000000    69.53000000
   H     75.53000000    92.25000000    69.09000000
   H     77.31000000    91.69000000    71.12000000
   H     77.96000000    93.04000000    68.49000000
   H     77.32000000    91.38000000    68.42000000
   N     77.32000000    94.90000000    70.41000000
   C     77.65000000    96.25000000    70.80000000
   C     77.63000000    96.56000000    72.29000000
   O     78.35000000    97.47000000    72.69000000
   C     78.89000000    96.73000000    70.04000000
   H     76.60000000    94.70000000    69.74000000
   H     76.90000000    96.93000000    70.41000000
   H     78.79000000    96.64000000    68.96000000
   H     79.07000000    97.79000000    70.23000000
   H     79.71000000    96.07000000    70.32000000
   N     76.66000000    95.97000000    73.00000000
   C     76.22000000    96.37000000    74.32000000
   C     77.29000000    96.37000000    75.40000000
   O     77.24000000    96.99000000    76.47000000
   C     75.44000000    97.68000000    74.27000000
   C     74.31000000    97.73000000    73.25000000
   O     73.83000000    98.80000000    72.81000000
   O     73.83000000    96.68000000    72.78000000
   H     76.16000000    95.25000000    72.50000000
   H     75.45000000    95.63000000    74.57000000
   H     76.23000000    98.38000000    74.02000000
   H     74.98000000    97.87000000    75.24000000
   N     78.31000000    95.57000000    75.14000000
   C     79.39000000    95.25000000    76.06000000
   C     79.01000000    94.29000000    77.18000000
   O     77.96000000    93.66000000    77.09000000
   H     78.23000000    94.93000000    74.36000000
   H     79.74000000    96.13000000    76.59000000
   H     80.28000000    94.87000000    75.56000000
   N     79.95000000    94.19000000    78.12000000
   C     79.76000000    93.64000000    79.45000000
   C     79.25000000    92.21000000    79.53000000
   O     78.64000000    91.89000000    80.55000000
   C     78.98000000    94.60000000    80.34000000
   C     79.59000000    96.00000000    80.22000000
   N     78.90000000    96.90000000    79.52000000
   O     80.65000000    96.29000000    80.77000000
   H     80.81000000    94.68000000    77.94000000
   H     80.79000000    93.59000000    79.79000000
   H     79.02000000    94.22000000    81.36000000
   H     77.95000000    94.73000000    80.02000000
   H     78.17000000    96.48000000    78.96000000
   H     79.27000000    97.82000000    79.37000000
   N     79.51000000    91.42000000    78.49000000
   C     79.08000000    90.03000000    78.44000000
   C     77.91000000    89.77000000    77.51000000
   O     77.68000000    88.59000000    77.24000000
   H     80.09000000    91.75000000    77.73000000
   H     78.87000000    89.60000000    79.42000000
   H     79.99000000    89.52000000    78.12000000
   N     77.20000000    90.75000000    76.96000000
   C     76.09000000    90.55000000    76.05000000
   C     74.80000000    90.61000000    76.84000000
   O     74.64000000    91.26000000    77.87000000
   C     76.06000000    91.53000000    74.88000000
   C     77.39000000    91.49000000    74.12000000
   O     75.15000000    91.19000000    73.86000000
   H     77.45000000    91.70000000    77.20000000
   H     76.26000000    89.53000000    75.68000000
   H     75.91000000    92.55000000    75.24000000
   H     75.27000000    91.89000000    73.22000000
   H     78.20000000    91.54000000    74.85000000
   H     77.55000000    90.64000000    73.47000000
   H     77.49000000    92.39000000    73.50000000
   N     73.82000000    89.83000000    76.38000000
   C     72.47000000    89.69000000    76.90000000
   C     71.80000000    90.99000000    77.31000000
   O     71.86000000    92.06000000    76.71000000
   C     71.59000000    88.81000000    76.02000000
   C     71.53000000    89.29000000    74.57000000
   C     71.86000000    87.31000000    76.15000000
   C     70.88000000    88.33000000    73.58000000
   H     74.06000000    89.27000000    75.57000000
   H     72.75000000    89.24000000    77.85000000
   H     70.54000000    88.95000000    76.27000000
   H     72.48000000    89.60000000    74.15000000
   H     70.85000000    90.15000000    74.60000000
   H     71.77000000    86.96000000    77.17000000
   H     71.25000000    86.69000000    75.49000000
   H     72.91000000    87.28000000    75.85000000
   H     69.95000000    87.95000000    74.01000000
   H     70.77000000    88.85000000    72.63000000
   H     71.50000000    87.48000000    73.32000000
   N     71.06000000    90.97000000    78.42000000
   C     70.54000000    92.11000000    79.16000000
   C     71.37000000    92.32000000    80.42000000
   O     70.83000000    92.61000000    81.48000000
   C     69.03000000    91.98000000    79.36000000
   C     68.45000000    93.33000000    79.74000000
   O     67.32000000    93.43000000    80.28000000
   O     69.14000000    94.35000000    79.53000000
   H     70.77000000    90.12000000    78.89000000
   H     70.71000000    93.01000000    78.58000000
   H     68.84000000    91.28000000    80.17000000
   H     68.48000000    91.66000000    78.47000000
   N     72.70000000    92.30000000    80.25000000
   C     73.69000000    92.61000000    81.26000000
   C     74.02000000    91.53000000    82.29000000
   O     73.96000000    91.78000000    83.49000000
   C     74.90000000    93.30000000    80.64000000
   C     75.68000000    93.94000000    81.76000000
   C     76.67000000    93.21000000    82.43000000
   C     75.42000000    95.28000000    82.08000000
   C     77.36000000    93.75000000    83.51000000
   C     76.18000000    95.76000000    83.15000000
   C     77.08000000    95.05000000    83.95000000
   H     72.95000000    92.09000000    79.29000000
   H     73.36000000    93.39000000    81.94000000
   H     74.63000000    94.08000000    79.93000000
   H     75.62000000    92.62000000    80.19000000
   H     76.88000000    92.19000000    82.13000000
   H     74.70000000    95.91000000    81.59000000
   H     78.10000000    93.13000000    84.00000000
   H     76.04000000    96.78000000    83.48000000
   H     77.64000000    95.55000000    84.73000000
   N     74.32000000    90.29000000    81.89000000
   C     74.25000000    89.64000000    80.60000000
   C     72.98000000    88.82000000    80.38000000
   O     72.99000000    87.83000000    79.65000000
   C     75.62000000    89.03000000    80.36000000
   C     76.03000000    88.62000000    81.77000000
   C     75.05000000    89.33000000    82.69000000
   H     74.03000000    90.43000000    79.89000000
   H     75.59000000    88.26000000    79.58000000
   H     76.24000000    89.86000000    80.02000000
   H     76.01000000    87.54000000    81.90000000
   H     77.04000000    88.95000000    82.04000000
   H     74.27000000    88.65000000    83.03000000
   H     75.55000000    89.77000000    83.56000000
   N     71.87000000    89.14000000    81.04000000
   C     70.75000000    88.25000000    81.26000000
   C     69.95000000    87.89000000    80.02000000
   O     69.89000000    88.59000000    79.01000000
   C     69.80000000    88.93000000    82.24000000
   C     68.94000000    88.06000000    83.14000000
   C     67.57000000    88.62000000    83.47000000
   O     67.44000000    89.43000000    84.41000000
   O     66.54000000    88.26000000    82.84000000
   H     71.81000000    90.01000000    81.54000000
   H     71.15000000    87.32000000    81.67000000
   H     69.34000000    89.70000000    81.62000000
   H     70.39000000    89.41000000    83.02000000
   H     69.53000000    87.82000000    84.03000000
   H     68.73000000    87.11000000    82.65000000
   N     69.29000000    86.73000000    80.07000000
   C     68.33000000    86.26000000    79.09000000
   H     67.45900000    86.91500000    79.09200000
   H     68.78700000    86.26800000    78.10000000
   H     68.02100000    85.24500000    79.34100000
   H     69.52000000    86.12000000    80.84000000
  Ca     71.94000000    97.76000000    71.33000000
   O     72.52000000    99.69800000    69.53000000
   H     73.38000000   100.08800000    69.46000000
   H     72.03000000   100.05800000    68.79000000
   O     74.28000000    97.58000000    69.95000000
   H     74.92000000    97.47000000    69.25000000
   H     74.58000000    98.35000000    70.43000000
   O     70.82000000    95.39000000    72.08000000
   H     71.31000000    94.69000000    72.52000000
   H     69.90000000    95.17000000    72.22000000
   O     69.28000000    97.87000000    70.51000000
   H     69.65000000    97.88000000    69.63000000
   H     68.68000000    97.12000000    70.50000000
   O     70.74000000   100.39800000    71.83000000
   H     71.21000000   100.54800000    72.65000000
   H     70.70000000   101.26800000    71.41000000
   O     70.71000000    98.22000000    73.73000000
   H     71.33000000    98.39000000    74.44000000
   H     69.86000000    98.13000000    74.17000000

Ca 1.00



