%chk=loop4.apoCaM-CA-Ng.Init31.run100.water5.chk
%nprocshared=20
%mem=10GB
%nosave
#b3lyp/svp scf=(tight,noincore,xqc) Test 
#IOP(5/87=12) Density=Current Pop=(MK,readradii) iop(6/33=2) iop(6/42=6)

loop4.apoCaM-CA-Ng.Init31.run100.water5 

   -3  1 
   C     98.63000000    50.87000000    47.15000000
   C     99.90000000    51.54000000    46.66000000
   O    100.04000000    52.76000000    46.73000000
   H     97.82300000    51.06000000    46.44200000
   H     98.79400000    49.79600000    47.23300000
   H     98.35900000    51.27300000    48.12600000
   N    100.90000000    50.96000000    46.00000000
   C    101.07000000    49.56000000    45.65000000
   C    101.80000000    48.87000000    46.80000000
   O    101.36000000    47.82000000    47.27000000
   C    101.90000000    49.47000000    44.37000000
   C    102.09000000    47.98000000    44.09000000
   O    101.05000000    47.37000000    43.77000000
   O    103.21000000    47.45000000    44.23000000
   H    101.71000000    51.56000000    45.94000000
   H    100.19000000    48.97000000    45.42000000
   H    102.79000000    50.06000000    44.56000000
   H    101.32000000    49.94000000    43.58000000
   N    102.82000000    49.47000000    47.42000000
   C    103.38000000    49.07000000    48.69000000
   C    104.58000000    48.14000000    48.65000000
   O    105.11000000    47.81000000    49.71000000
   C    103.60000000    50.31000000    49.56000000
   C    104.73000000    51.17000000    49.02000000
   C    102.35000000    51.12000000    49.90000000
   C    105.29000000    52.27000000    49.93000000
   H    103.15000000    50.35000000    47.05000000
   H    102.53000000    48.61000000    49.20000000
   H    103.84000000    49.82000000    50.50000000
   H    104.42000000    51.61000000    48.07000000
   H    105.55000000    50.49000000    48.79000000
   H    101.42000000    50.55000000    50.03000000
   H    102.38000000    51.60000000    50.88000000
   H    102.08000000    51.72000000    49.04000000
   H    106.29000000    52.46000000    49.55000000
   H    104.77000000    53.21000000    49.75000000
   H    105.24000000    51.89000000    50.95000000
   N    105.01000000    47.70000000    47.46000000
   C    106.20000000    46.93000000    47.16000000
   C    106.37000000    45.61000000    47.89000000
   O    105.46000000    45.06000000    48.51000000
   C    106.30000000    46.83000000    45.64000000
   C    107.66000000    46.31000000    45.21000000
   O    107.65000000    45.64000000    44.16000000
   O    108.71000000    46.44000000    45.87000000
   H    104.34000000    47.88000000    46.73000000
   H    107.10000000    47.49000000    47.41000000
   H    106.23000000    47.85000000    45.26000000
   H    105.55000000    46.15000000    45.24000000
   N    107.58000000    45.04000000    47.91000000
   C    108.03000000    43.81000000    48.52000000
   C    107.46000000    42.57000000    47.84000000
   O    106.73000000    42.60000000    46.85000000
   H    108.33000000    45.61000000    47.54000000
   H    107.76000000    43.82000000    49.57000000
   H    109.11000000    43.66000000    48.49000000
   N    107.71000000    41.43000000    48.50000000
   C    107.17000000    40.17000000    48.03000000
   C    107.85000000    39.65000000    46.77000000
   O    109.08000000    39.61000000    46.81000000
   C    106.92000000    39.16000000    49.14000000
   C    106.30000000    39.84000000    50.35000000
   O    105.11000000    40.23000000    50.31000000
   O    106.95000000    40.04000000    51.40000000
   H    108.31000000    41.45000000    49.31000000
   H    106.14000000    40.41000000    47.77000000
   H    107.84000000    38.69000000    49.47000000
   H    106.19000000    38.40000000    48.86000000
   N    107.20000000    39.41000000    45.63000000
   C    105.81000000    39.65000000    45.29000000
   C    104.87000000    38.58000000    45.84000000
   O    104.31000000    38.76000000    46.91000000
   H    107.77000000    39.06000000    44.87000000
   H    105.67000000    39.66000000    44.21000000
   H    105.49000000    40.65000000    45.58000000
   N    104.62000000    37.38000000    45.30000000
   C    105.03000000    36.93000000    43.98000000
   C    103.89000000    36.94000000    42.98000000
   O    102.72000000    36.79000000    43.34000000
   C    105.68000000    35.56000000    44.08000000
   C    107.06000000    35.57000000    44.74000000
   C    108.17000000    36.28000000    43.98000000
   N    108.70000000    35.61000000    42.95000000
   O    108.68000000    37.36000000    44.27000000
   H    103.99000000    36.85000000    45.87000000
   H    105.78000000    37.64000000    43.61000000
   H    105.74000000    35.15000000    43.08000000
   H    104.94000000    34.90000000    44.54000000
   H    107.32000000    34.52000000    44.87000000
   H    106.93000000    35.97000000    45.75000000
   H    108.21000000    34.77000000    42.70000000
   H    109.53000000    36.00000000    42.53000000
   N    104.16000000    36.93000000    41.68000000
   C    103.18000000    36.68000000    40.64000000
   C    103.36000000    37.60000000    39.45000000
   O    102.49000000    37.82000000    38.60000000
   C    103.25000000    35.23000000    40.17000000
   C    103.11000000    34.13000000    41.22000000
   C    104.51000000    34.89000000    39.39000000
   H    105.10000000    36.84000000    41.31000000
   H    102.23000000    36.83000000    41.16000000
   H    102.41000000    35.14000000    39.47000000
   H    104.00000000    34.10000000    41.85000000
   H    102.31000000    34.38000000    41.90000000
   H    103.06000000    33.12000000    40.80000000
   H    105.41000000    35.00000000    40.01000000
   H    104.51000000    33.85000000    39.09000000
   H    104.59000000    35.55000000    38.52000000
   N    104.55000000    38.19000000    39.35000000
   C    104.91000000    39.10000000    38.28000000
   C    104.29000000    40.48000000    38.44000000
   O    104.34000000    41.02000000    39.55000000
   C    106.40000000    39.15000000    37.95000000
   C    106.62000000    39.76000000    36.57000000
   N    107.59000000    40.67000000    36.49000000
   O    105.96000000    39.48000000    35.58000000
   H    105.32000000    37.99000000    39.97000000
   H    104.44000000    38.78000000    37.35000000
   H    106.86000000    38.17000000    38.03000000
   H    106.83000000    39.77000000    38.74000000
   H    108.20000000    40.80000000    37.28000000
   H    107.51000000    41.30000000    35.70000000
   N    103.83000000    41.12000000    37.36000000
   C    103.30000000    42.46000000    37.43000000
   C    102.06000000    42.45000000    36.56000000
   O    101.90000000    41.68000000    35.61000000
   C    104.33000000    43.45000000    36.87000000
   C    104.06000000    44.91000000    37.11000000
   C    104.58000000    45.64000000    38.19000000
   C    103.31000000    45.56000000    36.12000000
   C    104.38000000    47.01000000    38.32000000
   C    103.19000000    46.96000000    36.21000000
   C    103.67000000    47.69000000    37.31000000
   O    103.66000000    49.05000000    37.16000000
   H    103.83000000    40.64000000    36.47000000
   H    103.03000000    42.73000000    38.45000000
   H    104.63000000    43.18000000    35.86000000
   H    105.23000000    43.20000000    37.43000000
   H    105.05000000    45.14000000    39.03000000
   H    103.02000000    45.02000000    35.23000000
   H    104.81000000    47.63000000    39.10000000
   H    102.68000000    47.52000000    35.44000000
   H    104.26000000    49.54000000    37.73000000
   N    101.15000000    43.40000000    36.81000000
   C     99.84000000    43.48000000    36.20000000
   C     98.69000000    43.07000000    37.12000000
   O     97.62000000    42.73000000    36.63000000
   C     99.72000000    44.89000000    35.65000000
   C     98.69000000    45.08000000    34.53000000
   C     98.57000000    46.54000000    34.11000000
   O     97.87000000    47.22000000    34.90000000
   O     99.24000000    47.03000000    33.18000000
   H    101.28000000    44.02000000    37.60000000
   H     99.66000000    42.88000000    35.31000000
   H    100.68000000    45.12000000    35.19000000
   H     99.69000000    45.63000000    36.45000000
   H     97.71000000    44.71000000    34.83000000
   H     99.03000000    44.62000000    33.60000000
   N     98.80000000    43.26000000    38.44000000
   C     97.68000000    43.05000000    39.33000000
   C     96.67000000    44.17000000    39.14000000
   O     97.12000000    45.30000000    38.98000000
   C     98.26000000    43.20000000    40.73000000
   C     97.22000000    43.10000000    41.85000000
   C     97.79000000    42.70000000    43.20000000
   O     97.97000000    43.53000000    44.11000000
   O     97.99000000    41.47000000    43.35000000
   H     99.61000000    43.77000000    38.76000000
   H     97.16000000    42.11000000    39.19000000
   H     98.61000000    44.23000000    40.82000000
   H     99.09000000    42.51000000    40.88000000
   H     96.37000000    42.49000000    41.57000000
   H     96.82000000    44.12000000    41.92000000
   N     95.36000000    43.93000000    39.17000000
   C     94.34000000    44.95000000    38.99000000
   H     93.45800000    44.68800000    39.57400000
   H     94.72500000    45.91300000    39.32600000
   H     94.07100000    45.01400000    37.93600000
   H     94.98000000    43.05000000    39.51000000
  Ca     99.77800000    45.37000000    44.69000000
   O    102.41800000    45.17000000    45.32000000
   H    103.07800000    45.79000000    45.00000000
   H    102.62800000    45.06000000    46.25000000
   O    100.01800000    44.73000000    47.41000000
   H    100.88800000    44.39000000    47.63000000
   H     99.72800000    45.18000000    48.20000000
   O    100.34800000    42.66000000    45.14000000
   H    100.85800000    41.98000000    44.71000000
   H     99.48800000    42.61000000    44.73000000
   O     98.31000000    46.46000000    42.77000000
   H     97.74000000    47.17000000    42.48000000
   H     97.76000000    45.68000000    42.74000000
   O    100.91800000    44.25000000    42.57000000
   H    101.64800000    44.84000000    42.36000000
   H    101.16800000    43.41000000    42.20000000

Ca 1.00



