%chk=loop4.holoCaM.run43.water2.chk
%nprocshared=20
%mem=10GB
%nosave
#b3lyp/svp scf=(tight,noincore,xqc) Test 
#IOP(5/87=12) Density=Current Pop=(MK,readradii) iop(6/33=2) iop(6/42=6)

loop4.holoCaM.run43.water2 

   -3  1 
   C     77.39000000    36.94000000    14.26000000
   C     77.82000000    37.94000000    13.20000000
   O     77.04000000    38.50000000    12.44000000
   H     76.37700000    36.59800000    14.04700000
   H     78.06900000    36.08800000    14.25300000
   H     77.41300000    37.41600000    15.24000000
   N     79.14000000    38.07000000    13.04000000
   C     79.67000000    38.96000000    12.03000000
   C     79.42000000    38.54000000    10.59000000
   O     79.31000000    37.36000000    10.26000000
   C     81.17000000    38.99000000    12.31000000
   C     81.98000000    40.06000000    11.59000000
   O     83.22000000    40.10000000    11.72000000
   O     81.33000000    40.88000000    10.91000000
   H     79.74000000    37.75000000    13.79000000
   H     79.22000000    39.95000000    12.13000000
   H     81.66000000    38.05000000    12.04000000
   H     81.33000000    39.22000000    13.36000000
   N     79.36000000    39.47000000     9.64000000
   C     79.15000000    39.18000000     8.24000000
   C     80.20000000    39.76000000     7.31000000
   O     80.10000000    39.53000000     6.11000000
   C     77.76000000    39.66000000     7.81000000
   C     77.49000000    41.15000000     8.04000000
   C     76.70000000    38.78000000     8.46000000
   C     76.41000000    41.83000000     7.21000000
   H     79.58000000    40.43000000     9.86000000
   H     79.23000000    38.11000000     8.05000000
   H     77.64000000    39.45000000     6.75000000
   H     78.35000000    41.79000000     7.84000000
   H     77.26000000    41.28000000     9.10000000
   H     75.77000000    38.76000000     7.89000000
   H     77.03000000    37.75000000     8.40000000
   H     76.53000000    39.06000000     9.50000000
   H     75.40000000    41.45000000     7.38000000
   H     76.35000000    42.90000000     7.37000000
   H     76.66000000    41.75000000     6.15000000
   N     81.25000000    40.39000000     7.86000000
   C     82.19000000    41.18000000     7.09000000
   C     83.61000000    41.02000000     7.62000000
   O     84.48000000    41.29000000     6.79000000
   C     81.74000000    42.64000000     7.08000000
   C     81.61000000    43.10000000     8.52000000
   O     80.51000000    43.55000000     8.92000000
   O     82.60000000    43.12000000     9.29000000
   H     81.24000000    40.54000000     8.86000000
   H     82.25000000    40.86000000     6.05000000
   H     80.73000000    42.71000000     6.68000000
   H     82.47000000    43.24000000     6.54000000
   N     83.86000000    40.52000000     8.83000000
   C     85.13000000    40.03000000     9.32000000
   C     85.91000000    40.79000000    10.38000000
   O     87.03000000    40.43000000    10.74000000
   H     83.02000000    40.23000000     9.32000000
   H     85.67000000    39.79000000     8.41000000
   H     84.95000000    39.09000000     9.85000000
   N     85.40000000    41.94000000    10.84000000
   C     86.04000000    42.84000000    11.78000000
   C     85.67000000    42.56000000    13.22000000
   O     86.41000000    43.10000000    14.04000000
   C     85.89000000    44.32000000    11.45000000
   C     84.43000000    44.74000000    11.52000000
   O     84.15000000    45.90000000    11.13000000
   O     83.55000000    43.94000000    11.92000000
   H     84.44000000    42.05000000    10.55000000
   H     87.12000000    42.69000000    11.75000000
   H     86.22000000    44.51000000    10.43000000
   H     86.47000000    44.89000000    12.18000000
   N     84.69000000    41.71000000    13.53000000
   C     84.21000000    41.43000000    14.87000000
   C     83.83000000    42.70000000    15.61000000
   O     84.09000000    42.72000000    16.81000000
   H     84.29000000    41.12000000    12.82000000
   H     84.94000000    40.94000000    15.53000000
   H     83.36000000    40.77000000    14.68000000
   N     83.40000000    43.77000000    14.93000000
   C     82.77000000    44.94000000    15.50000000
   C     81.39000000    45.15000000    14.90000000
   O     81.33000000    45.20000000    13.68000000
   C     83.54000000    46.25000000    15.36000000
   C     84.91000000    46.10000000    16.03000000
   C     85.61000000    47.30000000    16.66000000
   N     86.73000000    47.09000000    17.37000000
   O     85.16000000    48.44000000    16.56000000
   H     83.49000000    43.70000000    13.92000000
   H     82.67000000    44.84000000    16.58000000
   H     82.99000000    47.01000000    15.91000000
   H     83.77000000    46.49000000    14.33000000
   H     85.66000000    45.80000000    15.30000000
   H     84.92000000    45.32000000    16.80000000
   H     87.19000000    46.20000000    17.42000000
   H     87.19000000    47.82000000    17.89000000
   N     80.38000000    45.49000000    15.71000000
   C     79.13000000    46.00000000    15.19000000
   C     79.22000000    47.48000000    14.86000000
   O     79.52000000    48.34000000    15.68000000
   C     77.93000000    45.75000000    16.10000000
   C     77.54000000    44.28000000    16.19000000
   C     78.09000000    46.36000000    17.48000000
   H     80.52000000    45.55000000    16.71000000
   H     78.90000000    45.54000000    14.23000000
   H     77.05000000    46.23000000    15.67000000
   H     77.32000000    43.78000000    15.24000000
   H     78.34000000    43.73000000    16.69000000
   H     76.63000000    44.13000000    16.78000000
   H     78.07000000    47.45000000    17.47000000
   H     77.15000000    46.09000000    17.96000000
   H     78.98000000    45.93000000    17.95000000
   N     78.95000000    47.87000000    13.61000000
   C     78.63000000    49.22000000    13.20000000
   C     77.18000000    49.60000000    13.47000000
   O     76.45000000    48.77000000    13.99000000
   C     78.97000000    49.42000000    11.73000000
   C     78.02000000    48.78000000    10.72000000
   N     77.91000000    47.45000000    10.64000000
   O     77.32000000    49.52000000    10.04000000
   H     78.57000000    47.18000000    12.97000000
   H     79.23000000    49.79000000    13.91000000
   H     79.97000000    49.00000000    11.60000000
   H     79.12000000    50.45000000    11.42000000
   H     78.68000000    46.83000000    10.82000000
   H     77.43000000    47.20000000     9.79000000
   N     76.74000000    50.82000000    13.13000000
   C     75.38000000    51.27000000    13.31000000
   C     74.46000000    50.25000000    12.66000000
   O     73.55000000    49.79000000    13.34000000
   C     75.24000000    52.71000000    12.81000000
   C     73.81000000    53.17000000    12.66000000
   C     73.23000000    53.76000000    13.79000000
   C     73.15000000    53.12000000    11.43000000
   C     71.87000000    54.08000000    13.68000000
   C     71.80000000    53.48000000    11.37000000
   C     71.09000000    53.90000000    12.52000000
   O     69.80000000    54.33000000    12.43000000
   H     77.35000000    51.51000000    12.72000000
   H     75.11000000    51.15000000    14.36000000
   H     75.78000000    52.75000000    11.87000000
   H     75.67000000    53.33000000    13.60000000
   H     73.62000000    53.69000000    14.80000000
   H     73.62000000    52.83000000    10.50000000
   H     71.46000000    54.75000000    14.42000000
   H     71.25000000    53.47000000    10.44000000
   H     69.34000000    54.18000000    11.60000000
   N     74.75000000    49.76000000    11.45000000
   C     73.80000000    48.88000000    10.80000000
   C     73.71000000    47.48000000    11.38000000
   O     72.62000000    46.95000000    11.60000000
   C     74.21000000    48.82000000     9.33000000
   C     74.06000000    50.16000000     8.61000000
   C     73.96000000    50.03000000     7.09000000
   O     74.98000000    49.58000000     6.53000000
   O     73.02000000    50.54000000     6.45000000
   H     75.61000000    50.02000000    10.99000000
   H     72.79000000    49.28000000    10.86000000
   H     73.61000000    48.12000000     8.74000000
   H     75.22000000    48.44000000     9.35000000
   H     74.91000000    50.81000000     8.82000000
   H     73.13000000    50.63000000     8.92000000
   N     74.81000000    46.92000000    11.88000000
   C     74.72000000    45.72000000    12.69000000
   C     74.17000000    45.87000000    14.10000000
   O     73.45000000    45.08000000    14.69000000
   C     76.06000000    44.99000000    12.70000000
   C     76.51000000    44.25000000    11.44000000
   C     77.99000000    43.97000000    11.63000000
   O     78.81000000    44.91000000    11.69000000
   O     78.47000000    42.81000000    11.67000000
   H     75.71000000    47.34000000    11.68000000
   H     74.01000000    45.02000000    12.25000000
   H     76.01000000    44.20000000    13.45000000
   H     76.83000000    45.74000000    12.90000000
   H     76.45000000    44.94000000    10.60000000
   H     75.96000000    43.32000000    11.27000000
   N     74.46000000    46.99000000    14.77000000
   C     73.79000000    47.35000000    16.01000000
   H     72.78400000    46.93000000    16.01400000
   H     74.35200000    46.95300000    16.85600000
   H     73.73000000    48.43500000    16.09000000
   H     75.03000000    47.67000000    14.29000000
  Ca     81.00000000    43.38000000    11.45000000
   O     81.47000000    46.31000000    10.80000000
   H     81.22000000    46.52000000    11.70000000
   H     82.43000000    46.26000000    10.83000000
   O     80.09000000    41.97000000    13.68000000
   H     79.13000000    41.92000000    13.76000000
   H     80.42000000    41.60000000    14.50000000

Ca 1.00



