%chk=loop1.holoCaM.run67.water2.chk
%nprocshared=20
%mem=10GB
%nosave
#b3lyp/svp scf=(tight,noincore,xqc) Test 
#IOP(5/87=12) Density=Current Pop=(MK,readradii) iop(6/33=2) iop(6/42=6)

loop1.holoCaM.run67.water2 

   0  1 
   C     49.28000000    72.45000000    21.72000000
   C     48.39000000    71.22000000    21.88000000
   O     47.51000000    70.97000000    21.05000000
   H     50.22100000    72.15900000    21.25300000
   H     48.77600000    73.18500000    21.09200000
   H     49.48000000    72.88400000    22.70000000
   N     48.43000000    70.47000000    22.98000000
   C     47.55000000    69.40000000    23.37000000
   C     46.22000000    70.00000000    23.81000000
   O     46.00000000    70.26000000    24.99000000
   C     48.25000000    68.58000000    24.45000000
   C     47.42000000    67.40000000    24.94000000
   O     47.86000000    66.75000000    25.92000000
   O     46.27000000    67.22000000    24.48000000
   H     49.14000000    70.67000000    23.67000000
   H     47.46000000    68.83000000    22.45000000
   H     48.46000000    69.26000000    25.28000000
   H     49.21000000    68.23000000    24.08000000
   N     45.39000000    70.36000000    22.83000000
   C     44.26000000    71.24000000    23.03000000
   C     43.10000000    70.62000000    23.79000000
   O     42.06000000    71.27000000    23.92000000
   C     43.72000000    71.77000000    21.70000000
   C     44.63000000    72.69000000    20.88000000
   C     45.32000000    73.77000000    21.71000000
   C     46.18000000    74.74000000    20.91000000
   N     46.63000000    75.82000000    21.81000000
   H     45.73000000    70.20000000    21.90000000
   H     44.54000000    72.06000000    23.70000000
   H     42.86000000    72.41000000    21.88000000
   H     43.33000000    70.98000000    21.06000000
   H     44.06000000    73.07000000    20.03000000
   H     45.42000000    72.02000000    20.53000000
   H     45.94000000    73.19000000    22.40000000
   H     44.59000000    74.26000000    22.36000000
   H     45.61000000    75.04000000    20.03000000
   H     47.05000000    74.20000000    20.56000000
   H     45.86000000    76.42000000    22.05000000
   H     47.05000000    75.51000000    22.67000000
   H     47.37000000    76.33000000    21.34000000
   N     43.22000000    69.37000000    24.26000000
   C     42.24000000    68.83000000    25.18000000
   C     42.92000000    68.22000000    26.40000000
   O     42.23000000    67.85000000    27.35000000
   C     41.35000000    67.81000000    24.47000000
   C     42.09000000    66.83000000    23.57000000
   O     41.51000000    66.44000000    22.53000000
   O     43.23000000    66.39000000    23.80000000
   H     44.05000000    68.88000000    23.98000000
   H     41.49000000    69.53000000    25.54000000
   H     40.53000000    68.41000000    24.07000000
   H     40.81000000    67.21000000    25.20000000
   N     44.24000000    68.07000000    26.49000000
   C     44.98000000    67.72000000    27.69000000
   C     45.00000000    66.26000000    28.12000000
   O     44.35000000    65.93000000    29.11000000
   H     44.88000000    68.22000000    25.73000000
   H     44.50000000    68.25000000    28.52000000
   H     46.00000000    68.05000000    27.49000000
   N     45.87000000    65.52000000    27.42000000
   C     46.01000000    64.10000000    27.66000000
   C     47.40000000    63.50000000    27.48000000
   O     47.56000000    62.29000000    27.37000000
   C     45.07000000    63.41000000    26.67000000
   C     45.31000000    63.78000000    25.22000000
   O     44.43000000    63.65000000    24.35000000
   O     46.44000000    64.13000000    24.79000000
   H     46.38000000    65.97000000    26.68000000
   H     45.57000000    63.74000000    28.59000000
   H     44.03000000    63.62000000    26.94000000
   H     45.10000000    62.32000000    26.71000000
   N     48.39000000    64.39000000    27.47000000
   C     49.80000000    64.03000000    27.43000000
   C     50.19000000    63.71000000    26.00000000
   O     51.30000000    63.21000000    25.82000000
   H     48.19000000    65.38000000    27.42000000
   H     49.94000000    63.14000000    28.04000000
   H     50.44000000    64.88000000    27.66000000
   N     49.35000000    63.99000000    25.00000000
   C     49.65000000    63.60000000    23.64000000
   C     49.15000000    64.61000000    22.61000000
   O     48.14000000    65.28000000    22.85000000
   C     49.17000000    62.19000000    23.31000000
   C     49.93000000    61.03000000    23.94000000
   O     47.80000000    62.03000000    23.60000000
   H     48.50000000    64.51000000    25.21000000
   H     50.74000000    63.62000000    23.53000000
   H     49.23000000    62.01000000    22.24000000
   H     47.61000000    62.58000000    24.36000000
   H     49.80000000    60.94000000    25.02000000
   H     49.61000000    60.08000000    23.53000000
   H     50.99000000    61.08000000    23.70000000
   N     49.87000000    64.68000000    21.49000000
   C     49.50000000    65.45000000    20.32000000
   C     49.00000000    64.54000000    19.21000000
   O     49.75000000    63.79000000    18.59000000
   C     50.66000000    66.34000000    19.89000000
   C     50.70000000    67.47000000    20.92000000
   C     50.66000000    66.69000000    18.40000000
   C     51.72000000    68.58000000    20.67000000
   H     50.65000000    64.06000000    21.32000000
   H     48.68000000    66.11000000    20.60000000
   H     51.57000000    65.75000000    20.04000000
   H     50.97000000    66.96000000    21.84000000
   H     49.69000000    67.87000000    20.98000000
   H     50.88000000    65.80000000    17.80000000
   H     49.69000000    67.10000000    18.14000000
   H     51.44000000    67.43000000    18.23000000
   H     52.67000000    68.10000000    20.44000000
   H     51.46000000    69.22000000    19.82000000
   H     51.71000000    69.25000000    21.53000000
   N     47.71000000    64.69000000    18.89000000
   C     47.12000000    64.20000000    17.66000000
   C     47.35000000    65.07000000    16.44000000
   O     48.00000000    66.12000000    16.49000000
   C     45.64000000    63.87000000    17.90000000
   C     44.92000000    65.17000000    18.20000000
   O     44.99000000    63.19000000    16.85000000
   H     47.21000000    65.30000000    19.52000000
   H     47.59000000    63.24000000    17.44000000
   H     45.54000000    63.28000000    18.81000000
   H     44.45000000    62.53000000    17.29000000
   H     43.89000000    64.89000000    18.43000000
   H     45.25000000    65.76000000    19.06000000
   H     45.04000000    65.82000000    17.33000000
   N     46.78000000    64.81000000    15.27000000
   C     47.20000000    65.50000000    14.07000000
   C     46.72000000    66.94000000    13.95000000
   O     47.53000000    67.84000000    13.73000000
   C     46.93000000    64.67000000    12.82000000
   C     47.84000000    64.99000000    11.64000000
   O     47.17000000    63.31000000    13.10000000
   H     46.07000000    64.09000000    15.24000000
   H     48.28000000    65.60000000    14.06000000
   H     45.88000000    64.71000000    12.52000000
   H     46.67000000    62.84000000    12.42000000
   H     47.73000000    64.20000000    10.89000000
   H     47.53000000    65.96000000    11.27000000
   H     48.91000000    64.94000000    11.88000000
   N     45.40000000    67.14000000    14.07000000
   C     44.82000000    68.45000000    14.23000000
   C     45.66000000    69.30000000    15.17000000
   O     45.81000000    70.49000000    14.88000000
   C     43.40000000    68.39000000    14.78000000
   C     42.57000000    69.67000000    14.71000000
   C     41.06000000    69.56000000    14.88000000
   C     40.39000000    70.87000000    14.48000000
   N     39.01000000    70.85000000    14.99000000
   H     44.90000000    66.28000000    14.27000000
   H     44.91000000    69.00000000    13.29000000
   H     43.45000000    68.08000000    15.82000000
   H     42.95000000    67.59000000    14.20000000
   H     42.72000000    70.19000000    13.76000000
   H     42.92000000    70.34000000    15.50000000
   H     40.89000000    69.17000000    15.89000000
   H     40.75000000    68.81000000    14.14000000
   H     40.39000000    71.20000000    13.44000000
   H     40.93000000    71.61000000    15.06000000
   H     38.74000000    71.82000000    15.10000000
   H     38.26000000    70.41000000    14.48000000
   H     39.09000000    70.53000000    15.94000000
   N     46.15000000    68.76000000    16.30000000
   C     46.80000000    69.47000000    17.38000000
   C     48.20000000    69.84000000    16.93000000
   O     48.62000000    70.97000000    17.16000000
   C     46.87000000    68.60000000    18.63000000
   C     45.62000000    68.53000000    19.51000000
   C     45.77000000    67.64000000    20.74000000
   O     46.62000000    66.73000000    20.80000000
   O     44.92000000    67.79000000    21.65000000
   H     45.87000000    67.81000000    16.46000000
   H     46.36000000    70.46000000    17.53000000
   H     47.69000000    69.06000000    19.19000000
   H     47.22000000    67.59000000    18.44000000
   H     44.87000000    68.12000000    18.83000000
   H     45.29000000    69.54000000    19.74000000
   N     49.00000000    69.01000000    16.25000000
   C     50.25000000    69.33000000    15.59000000
   H     51.03900000    68.68300000    15.97400000
   H     50.14400000    69.17600000    14.51600000
   H     50.50800000    70.37100000    15.78500000
   H     48.69000000    68.05000000    16.19000000
  Ca     45.49000000    65.37000000    22.85000000
   O     46.32000000    62.97000000    21.74000000
   H     45.65000000    62.31000000    21.55000000
   H     46.96000000    62.51000000    22.29000000
   O     43.26000000    65.11000000    21.29000000
   H     42.78000000    64.66000000    20.60000000
   H     42.61000000    65.67000000    21.71000000

Ca 1.00



