%chk=loop4.holoCaM-CaMKII.run34.water2.chk
%nprocshared=20
%mem=10GB
%nosave
#b3lyp/svp scf=(tight,noincore,xqc) Test 
#IOP(5/87=12) Density=Current Pop=(MK,readradii) iop(6/33=2) iop(6/42=6)

loop4.holoCaM-CaMKII.run34.water2 

   -3  1 
   C     99.25000000    48.37000000    34.42000000
   C     99.51000000    48.00000000    35.88000000
   O     99.00000000    48.58000000    36.84000000
   H     98.48800000    49.14800000    34.37300000
   H    100.17200000    48.73700000    33.96800000
   H     98.90400000    47.49000000    33.87800000
   N    100.35000000    46.99000000    36.10000000
   C    100.67000000    46.44000000    37.40000000
   C    101.61000000    47.32000000    38.22000000
   O    102.70000000    47.63000000    37.74000000
   C    101.34000000    45.08000000    37.18000000
   C    101.76000000    44.39000000    38.47000000
   O    101.17000000    44.67000000    39.53000000
   O    102.68000000    43.54000000    38.45000000
   H    100.72000000    46.52000000    35.29000000
   H     99.77000000    46.27000000    38.00000000
   H    102.18000000    45.25000000    36.51000000
   H    100.69000000    44.39000000    36.65000000
   N    101.22000000    47.76000000    39.41000000
   C    101.86000000    48.77000000    40.24000000
   C    102.67000000    48.09000000    41.34000000
   O    103.83000000    48.41000000    41.56000000
   C    100.81000000    49.71000000    40.81000000
   C     99.69000000    50.14000000    39.85000000
   C    101.44000000    50.88000000    41.56000000
   C     98.67000000    51.17000000    40.31000000
   H    100.29000000    47.47000000    39.70000000
   H    102.52000000    49.35000000    39.60000000
   H    100.28000000    49.18000000    41.60000000
   H     99.05000000    49.30000000    39.57000000
   H    100.12000000    50.67000000    39.00000000
   H    101.97000000    51.55000000    40.88000000
   H    100.62000000    51.37000000    42.08000000
   H    102.20000000    50.50000000    42.26000000
   H     99.06000000    52.10000000    40.72000000
   H     98.03000000    51.62000000    39.55000000
   H     98.10000000    50.80000000    41.16000000
   N    102.05000000    47.22000000    42.14000000
   C    102.70000000    46.64000000    43.30000000
   C    103.65000000    45.49000000    43.00000000
   O    104.45000000    45.12000000    43.86000000
   C    101.69000000    46.24000000    44.38000000
   C    100.56000000    45.31000000    43.96000000
   O    100.35000000    44.95000000    42.78000000
   O     99.85000000    44.86000000    44.88000000
   H    101.21000000    46.72000000    41.90000000
   H    103.21000000    47.46000000    43.79000000
   H    101.25000000    47.12000000    44.85000000
   H    102.28000000    45.68000000    45.10000000
   N    103.77000000    45.14000000    41.71000000
   C    104.70000000    44.19000000    41.15000000
   C    104.45000000    42.72000000    41.48000000
   O    105.21000000    42.13000000    42.24000000
   H    103.13000000    45.55000000    41.05000000
   H    105.65000000    44.35000000    41.66000000
   H    104.73000000    44.41000000    40.08000000
   N    103.50000000    42.13000000    40.75000000
   C    103.10000000    40.76000000    41.03000000
   C    102.66000000    40.01000000    39.79000000
   O    102.32000000    38.83000000    39.85000000
   C    101.99000000    40.68000000    42.09000000
   C    100.71000000    41.37000000    41.64000000
   O    100.56000000    41.73000000    40.46000000
   O     99.86000000    41.62000000    42.52000000
   H    102.92000000    42.71000000    40.17000000
   H    103.97000000    40.20000000    41.37000000
   H    102.40000000    41.15000000    42.98000000
   H    101.74000000    39.64000000    42.27000000
   N    102.80000000    40.59000000    38.59000000
   C    102.42000000    39.95000000    37.35000000
   C    100.92000000    39.79000000    37.15000000
   O    100.59000000    39.03000000    36.25000000
   H    103.03000000    41.57000000    38.57000000
   H    102.88000000    38.96000000    37.41000000
   H    102.87000000    40.50000000    36.52000000
   N    100.08000000    40.59000000    37.81000000
   C     98.64000000    40.61000000    37.63000000
   C     98.16000000    42.05000000    37.74000000
   O     98.76000000    42.84000000    38.46000000
   C     97.86000000    39.81000000    38.67000000
   C     97.98000000    38.29000000    38.73000000
   C     96.74000000    37.59000000    39.28000000
   N     96.67000000    37.63000000    40.62000000
   O     95.87000000    37.07000000    38.59000000
   H    100.57000000    41.14000000    38.50000000
   H     98.40000000    40.14000000    36.67000000
   H     96.81000000    39.94000000    38.43000000
   H     98.12000000    40.32000000    39.60000000
   H     98.75000000    37.97000000    39.43000000
   H     98.02000000    37.89000000    37.72000000
   H     97.38000000    38.17000000    41.09000000
   H     95.99000000    37.07000000    41.11000000
   N     97.06000000    42.37000000    37.05000000
   C     96.36000000    43.63000000    37.01000000
   C     95.05000000    43.47000000    37.77000000
   O     94.07000000    42.99000000    37.22000000
   C     96.16000000    44.14000000    35.59000000
   C     95.42000000    45.48000000    35.53000000
   C     97.48000000    44.35000000    34.87000000
   H     96.70000000    41.57000000    36.55000000
   H     96.92000000    44.44000000    37.49000000
   H     95.51000000    43.53000000    34.97000000
   H     96.19000000    46.10000000    36.01000000
   H     95.20000000    45.83000000    34.53000000
   H     94.51000000    45.52000000    36.12000000
   H     97.35000000    44.42000000    33.79000000
   H     98.04000000    45.15000000    35.35000000
   H     97.95000000    43.37000000    34.91000000
   N     94.95000000    44.09000000    38.95000000
   C     93.70000000    44.27000000    39.68000000
   C     92.85000000    45.38000000    39.08000000
   O     93.40000000    46.32000000    38.51000000
   C     94.21000000    44.82000000    41.00000000
   C     93.11000000    45.07000000    42.03000000
   N     92.29000000    44.08000000    42.38000000
   O     92.98000000    46.17000000    42.57000000
   H     95.81000000    44.40000000    39.38000000
   H     93.08000000    43.39000000    39.81000000
   H     94.76000000    45.74000000    40.79000000
   H     94.94000000    44.14000000    41.43000000
   H     92.32000000    43.16000000    41.95000000
   H     91.69000000    44.16000000    43.19000000
   N     91.58000000    45.42000000    39.50000000
   C     90.71000000    46.46000000    38.99000000
   C     91.04000000    47.89000000    39.37000000
   O     90.85000000    48.78000000    38.54000000
   C     89.26000000    46.21000000    39.41000000
   C     88.23000000    47.28000000    39.14000000
   C     87.84000000    47.65000000    37.85000000
   C     87.66000000    47.90000000    40.26000000
   C     87.00000000    48.75000000    37.66000000
   C     86.64000000    48.85000000    40.12000000
   C     86.41000000    49.32000000    38.81000000
   O     85.40000000    50.23000000    38.69000000
   H     91.14000000    44.73000000    40.09000000
   H     90.84000000    46.51000000    37.91000000
   H     89.23000000    45.85000000    40.44000000
   H     88.91000000    45.28000000    38.95000000
   H     88.38000000    47.19000000    37.03000000
   H     88.03000000    47.62000000    41.23000000
   H     86.77000000    49.03000000    36.64000000
   H     86.08000000    49.30000000    40.92000000
   H     85.00000000    50.45000000    39.53000000
   N     91.64000000    48.14000000    40.53000000
   C     92.15000000    49.47000000    40.79000000
   C     93.35000000    49.89000000    39.95000000
   O     93.57000000    51.08000000    39.78000000
   C     92.24000000    49.67000000    42.30000000
   C     92.35000000    51.12000000    42.77000000
   C     92.24000000    51.16000000    44.28000000
   O     93.30000000    51.42000000    44.90000000
   O     91.15000000    51.11000000    44.88000000
   H     91.82000000    47.38000000    41.17000000
   H     91.33000000    50.11000000    40.46000000
   H     93.18000000    49.27000000    42.67000000
   H     91.45000000    49.09000000    42.79000000
   H     91.44000000    51.54000000    42.34000000
   H     93.25000000    51.60000000    42.38000000
   N     94.17000000    48.92000000    39.51000000
   C     95.34000000    49.18000000    38.70000000
   C     94.90000000    49.36000000    37.25000000
   O     95.61000000    50.02000000    36.49000000
   C     96.30000000    48.01000000    38.90000000
   C     96.68000000    47.59000000    40.32000000
   C     97.64000000    46.41000000    40.35000000
   O     98.78000000    46.45000000    40.87000000
   O     97.24000000    45.31000000    39.92000000
   H     93.78000000    47.99000000    39.55000000
   H     95.93000000    50.04000000    39.04000000
   H     97.24000000    48.36000000    38.48000000
   H     96.04000000    47.17000000    38.26000000
   H     95.80000000    47.38000000    40.92000000
   H     97.27000000    48.44000000    40.67000000
   N     93.81000000    48.75000000    36.81000000
   C     93.26000000    48.83000000    35.47000000
   H     92.37400000    49.46500000    35.47900000
   H     94.00400000    49.25500000    34.79600000
   H     92.98800000    47.83100000    35.12800000
   H     93.37000000    48.06000000    37.39000000
  Ca     99.19000000    43.86000000    40.82000000
   O     97.49000000    44.32000000    43.46000000
   H     98.36000000    44.52000000    43.81000000
   H     96.90000000    44.91000000    43.94000000
   O     97.13000000    42.36000000    41.24000000
   H     96.81000000    41.46000000    41.26000000
   H     96.88000000    42.73000000    42.08000000

Ca 1.00



