%chk=loop3.holoCaM.run88.water2.chk
%nprocshared=20
%mem=10GB
%nosave
#b3lyp/svp scf=(tight,noincore,xqc) Test 
#IOP(5/87=12) Density=Current Pop=(MK,readradii) iop(6/33=2) iop(6/42=6)

loop3.holoCaM.run88.water2 

   0  1 
   C     47.78000000    61.84000000    31.59000000
   C     49.04000000    60.99000000    31.64000000
   O     48.89000000    59.77000000    31.60000000
   H     46.98300000    61.34000000    32.14000000
   H     47.97800000    62.81200000    32.04200000
   H     47.47400000    61.97700000    30.55300000
   N     50.23000000    61.57000000    31.81000000
   C     51.36000000    60.82000000    32.32000000
   C     51.09000000    60.33000000    33.73000000
   O     51.02000000    61.16000000    34.64000000
   C     52.72000000    61.47000000    32.08000000
   C     53.95000000    60.71000000    32.57000000
   O     53.90000000    59.49000000    32.85000000
   O     55.05000000    61.30000000    32.65000000
   H     50.32000000    62.58000000    31.84000000
   H     51.46000000    59.90000000    31.75000000
   H     52.64000000    62.53000000    32.27000000
   H     52.72000000    61.42000000    31.00000000
   N     50.97000000    59.02000000    33.95000000
   C     50.50000000    58.43000000    35.19000000
   C     51.60000000    57.99000000    36.14000000
   O     51.28000000    57.45000000    37.21000000
   C     49.48000000    57.32000000    34.93000000
   C     48.12000000    57.76000000    34.41000000
   C     47.38000000    58.57000000    35.48000000
   C     45.90000000    58.80000000    35.18000000
   N     45.33000000    59.89000000    35.98000000
   H     51.02000000    58.50000000    33.09000000
   H     49.99000000    59.20000000    35.76000000
   H     49.39000000    56.76000000    35.86000000
   H     49.92000000    56.60000000    34.24000000
   H     47.51000000    56.90000000    34.11000000
   H     48.32000000    58.45000000    33.59000000
   H     47.84000000    59.55000000    35.53000000
   H     47.51000000    58.04000000    36.43000000
   H     45.29000000    57.90000000    35.17000000
   H     45.79000000    59.17000000    34.16000000
   H     44.40000000    60.09000000    35.63000000
   H     45.10000000    59.66000000    36.93000000
   H     45.81000000    60.77000000    35.84000000
   N     52.86000000    58.35000000    35.91000000
   C     54.06000000    58.09000000    36.68000000
   C     55.04000000    59.25000000    36.73000000
   O     55.81000000    59.40000000    37.67000000
   C     54.76000000    56.87000000    36.09000000
   C     54.85000000    56.94000000    34.57000000
   O     54.00000000    56.34000000    33.88000000
   O     55.85000000    57.47000000    34.04000000
   H     53.01000000    58.89000000    35.07000000
   H     53.75000000    57.92000000    37.71000000
   H     54.18000000    55.97000000    36.32000000
   H     55.78000000    56.78000000    36.46000000
   N     55.17000000    60.06000000    35.67000000
   C     55.98000000    61.26000000    35.67000000
   C     57.27000000    61.12000000    34.88000000
   O     58.07000000    62.05000000    34.91000000
   H     54.57000000    59.93000000    34.86000000
   H     56.17000000    61.61000000    36.69000000
   H     55.45000000    62.05000000    35.13000000
   N     57.53000000    60.01000000    34.18000000
   C     58.64000000    59.90000000    33.26000000
   C     58.63000000    60.83000000    32.05000000
   O     59.60000000    60.86000000    31.30000000
   C     58.70000000    58.44000000    32.82000000
   C     58.03000000    58.13000000    31.49000000
   N     58.71000000    57.50000000    30.53000000
   O     56.90000000    58.54000000    31.21000000
   H     56.76000000    59.35000000    34.21000000
   H     59.56000000    60.07000000    33.82000000
   H     58.13000000    57.78000000    33.47000000
   H     59.75000000    58.17000000    32.85000000
   H     59.55000000    56.98000000    30.74000000
   H     58.18000000    57.33000000    29.69000000
   N     57.58000000    61.62000000    31.81000000
   C     57.57000000    62.53000000    30.68000000
   C     57.04000000    61.89000000    29.40000000
   O     57.27000000    62.53000000    28.38000000
   H     56.76000000    61.52000000    32.39000000
   H     58.47000000    63.10000000    30.44000000
   H     56.79000000    63.26000000    30.92000000
   N     56.48000000    60.68000000    29.43000000
   C     55.94000000    60.08000000    28.23000000
   C     54.66000000    59.30000000    28.47000000
   O     54.39000000    58.93000000    29.61000000
   C     57.02000000    59.23000000    27.58000000
   C     58.30000000    59.96000000    27.25000000
   C     58.48000000    60.64000000    26.05000000
   C     59.45000000    59.83000000    28.04000000
   C     59.74000000    61.11000000    25.65000000
   C     60.74000000    60.27000000    27.69000000
   C     60.88000000    60.92000000    26.45000000
   O     62.08000000    61.45000000    26.06000000
   H     56.31000000    60.24000000    30.33000000
   H     55.74000000    60.91000000    27.56000000
   H     56.69000000    58.75000000    26.66000000
   H     57.26000000    58.40000000    28.25000000
   H     57.62000000    60.67000000    25.39000000
   H     59.40000000    59.43000000    29.05000000
   H     59.91000000    61.77000000    24.81000000
   H     61.56000000    60.15000000    28.38000000
   H     62.75000000    61.09000000    26.63000000
   N     53.95000000    58.95000000    27.39000000
   C     52.66000000    58.29000000    27.46000000
   C     52.72000000    57.12000000    26.49000000
   O     52.88000000    57.39000000    25.30000000
   C     51.51000000    59.23000000    27.12000000
   C     51.20000000    60.09000000    28.34000000
   C     50.32000000    58.53000000    26.46000000
   C     50.10000000    61.13000000    28.14000000
   H     54.28000000    59.29000000    26.50000000
   H     52.43000000    57.90000000    28.45000000
   H     51.86000000    59.96000000    26.39000000
   H     52.09000000    60.54000000    28.78000000
   H     50.80000000    59.42000000    29.10000000
   H     50.15000000    57.64000000    27.06000000
   H     49.45000000    59.18000000    26.44000000
   H     50.53000000    58.23000000    25.44000000
   H     50.30000000    61.64000000    27.20000000
   H     49.15000000    60.62000000    28.10000000
   H     50.18000000    61.83000000    28.98000000
   N     52.50000000    55.87000000    26.92000000
   C     52.40000000    54.63000000    26.18000000
   C     50.96000000    54.29000000    25.85000000
   O     50.04000000    54.95000000    26.32000000
   C     53.11000000    53.59000000    27.04000000
   O     52.16000000    52.87000000    27.78000000
   H     52.30000000    55.66000000    27.89000000
   H     52.98000000    54.75000000    25.26000000
   H     53.82000000    54.07000000    27.71000000
   H     53.67000000    52.88000000    26.42000000
   H     52.56000000    52.77000000    28.65000000
   N     50.72000000    53.20000000    25.10000000
   C     49.42000000    52.60000000    24.89000000
   C     48.54000000    52.56000000    26.13000000
   O     47.38000000    52.96000000    26.01000000
   C     49.74000000    51.20000000    24.37000000
   H     51.45000000    52.73000000    24.59000000
   H     48.93000000    53.01000000    24.01000000
   H     48.81000000    50.64000000    24.30000000
   H     50.15000000    51.26000000    23.37000000
   H     50.42000000    50.71000000    25.07000000
   N     49.04000000    52.19000000    27.31000000
   C     48.25000000    51.93000000    28.50000000
   C     47.68000000    53.22000000    29.05000000
   O     46.53000000    53.29000000    29.50000000
   C     49.09000000    51.23000000    29.56000000
   H     50.04000000    52.23000000    27.46000000
   H     47.40000000    51.30000000    28.27000000
   H     48.42000000    51.21000000    30.43000000
   H     49.24000000    50.18000000    29.33000000
   H     49.98000000    51.72000000    29.96000000
   N     48.55000000    54.23000000    29.17000000
   C     48.14000000    55.52000000    29.68000000
   C     47.25000000    56.28000000    28.70000000
   O     46.24000000    56.83000000    29.13000000
   C     49.46000000    56.24000000    29.97000000
   C     50.30000000    55.59000000    31.07000000
   C     51.65000000    56.28000000    31.15000000
   O     51.80000000    57.41000000    31.67000000
   O     52.65000000    55.63000000    30.79000000
   H     49.49000000    54.11000000    28.83000000
   H     47.52000000    55.45000000    30.57000000
   H     49.29000000    57.28000000    30.22000000
   H     50.10000000    56.12000000    29.09000000
   H     50.47000000    54.55000000    30.79000000
   H     49.81000000    55.65000000    32.04000000
   N     47.50000000    56.17000000    27.40000000
   C     46.67000000    56.63000000    26.30000000
   H     45.77800000    57.11400000    26.69700000
   H     47.23000000    57.34200000    25.69400000
   H     46.37800000    55.77900000    25.68400000
   H     48.41000000    55.78000000    27.18000000
  Ca     54.57000000    57.23000000    31.55000000
   O     56.43000000    55.28000000    32.11000000
   H     56.31000000    54.42000000    31.71000000
   H     57.24000000    55.19000000    32.62000000
   O     55.73000000    56.01000000    29.53000000
   H     56.26000000    55.26000000    29.78000000
   H     55.88000000    56.12000000    28.59000000

Ca 1.00



