%chk=loop4.holoCaM-CaMKII.run43.water2.chk
%nprocshared=20
%mem=10GB
%nosave
#b3lyp/svp scf=(tight,noincore,xqc) Test 
#IOP(5/87=12) Density=Current Pop=(MK,readradii) iop(6/33=2) iop(6/42=6)

loop4.holoCaM-CaMKII.run43.water2 

   -3  1 
   C      1.33200000    39.61000000     9.75200000
   C      1.93200000    40.27000000    10.98200000
   O      1.24200000    40.68000000    11.92200000
   H      0.43200000    40.14800000     9.45500000
   H      2.05500000    39.63400000     8.93700000
   H      1.07700000    38.57500000     9.98200000
   N      3.25200000    40.34000000    11.15200000
   C      3.97200000    40.89000000    12.28200000
   C      3.73200000    42.39000000    12.39200000
   O      3.95200000    43.14000000    11.44200000
   C      5.46200000    40.59000000    12.15200000
   C      6.35200000    41.16000000    13.25200000
   O      5.86200000    41.34000000    14.38200000
   O      7.56200000    41.30000000    13.00200000
   H      3.77200000    40.24000000    10.29200000
   H      3.50200000    40.48000000    13.17200000
   H      5.82200000    41.03000000    11.23200000
   H      5.61200000    39.51000000    12.14200000
   N      3.41200000    42.93000000    13.57200000
   C      2.93200000    44.26000000    13.88200000
   C      4.10200000    44.99000000    14.51200000
   O      4.25200000    46.18000000    14.24200000
   C      1.62200000    44.26000000    14.67200000
   C      0.52200000    43.40000000    14.05200000
   C      1.20200000    45.68000000    15.05200000
   C     -0.85800000    43.46000000    14.68200000
   H      3.31200000    42.33000000    14.37200000
   H      2.78200000    44.88000000    12.99200000
   H      1.78200000    43.81000000    15.65200000
   H      0.86200000    42.38000000    14.22200000
   H      0.50200000    43.58000000    12.97200000
   H      0.35200000    45.67000000    15.73200000
   H      1.98200000    46.14000000    15.65200000
   H      1.04200000    46.16000000    14.08200000
   H     -1.38800000    44.37000000    14.40200000
   H     -1.42800000    42.61000000    14.29200000
   H     -0.80800000    43.38000000    15.76200000
   N      4.76200000    44.30000000    15.44200000
   C      5.74200000    44.95000000    16.30200000
   C      7.20200000    44.73000000    15.91200000
   O      8.09200000    45.17000000    16.64200000
   C      5.42200000    44.69000000    17.77200000
   C      5.53200000    43.23000000    18.19200000
   O      5.98200000    42.34000000    17.44200000
   O      5.22200000    42.99000000    19.38200000
   H      4.75200000    43.30000000    15.34200000
   H      5.69200000    46.03000000    16.25200000
   H      4.45200000    45.10000000    18.03200000
   H      6.11200000    45.29000000    18.37200000
   N      7.42200000    44.06000000    14.79200000
   C      8.69200000    44.05000000    14.09200000
   C      9.70200000    43.21000000    14.87200000
   O     10.90200000    43.39000000    14.65200000
   H      6.65200000    43.59000000    14.33200000
   H      9.07200000    45.07000000    14.00200000
   H      8.49200000    43.64000000    13.11200000
   N      9.31200000    42.28000000    15.74200000
   C     10.26200000    41.36000000    16.33200000
   C     10.76200000    40.38000000    15.27200000
   O     11.89200000    39.89000000    15.32200000
   C      9.72200000    40.61000000    17.54200000
   C      8.45200000    39.82000000    17.27200000
   O      7.87200000    39.74000000    16.17200000
   O      7.85200000    39.35000000    18.27200000
   H      8.30200000    42.21000000    15.79200000
   H     11.09200000    41.97000000    16.68200000
   H      9.45200000    41.30000000    18.34200000
   H     10.52200000    39.93000000    17.83200000
   N      9.94200000    40.16000000    14.24200000
   C     10.23200000    39.37000000    13.06200000
   C      9.34200000    38.15000000    12.90200000
   O      9.53200000    37.34000000    12.00200000
   H      9.11200000    40.73000000    14.21200000
   H     11.29200000    39.15000000    12.95200000
   H     10.08200000    40.05000000    12.22200000
   N      8.42200000    37.91000000    13.84200000
   C      7.77200000    36.68000000    14.23200000
   C      6.30200000    36.98000000    14.48200000
   O      5.95200000    38.06000000    14.96200000
   C      8.38200000    36.13000000    15.51200000
   C      9.89200000    35.88000000    15.43200000
   C     10.32200000    34.77000000    16.38200000
   N     11.19200000    35.16000000    17.31200000
   O      9.85200000    33.64000000    16.37200000
   H      8.39200000    38.66000000    14.52200000
   H      7.78200000    36.01000000    13.37200000
   H      7.92200000    35.17000000    15.75200000
   H      8.13200000    36.87000000    16.27200000
   H     10.39200000    36.82000000    15.67200000
   H     10.22200000    35.55000000    14.45200000
   H     11.59200000    36.08000000    17.33200000
   H     11.70200000    34.42000000    17.77200000
   N      5.47200000    35.97000000    14.21200000
   C      4.02200000    36.06000000    14.28200000
   C      3.57200000    35.24000000    15.48200000
   O      3.59200000    34.01000000    15.45200000
   C      3.39200000    35.65000000    12.95200000
   C      1.87200000    35.81000000    12.97200000
   C      3.97200000    36.42000000    11.78200000
   H      5.79200000    35.10000000    13.81200000
   H      3.77200000    37.10000000    14.47200000
   H      3.74200000    34.64000000    12.73200000
   H      1.53200000    35.30000000    13.87200000
   H      1.72200000    36.89000000    13.02200000
   H      1.43200000    35.30000000    12.12200000
   H      3.76200000    37.47000000    11.97200000
   H      5.05200000    36.32000000    11.64200000
   H      3.46200000    36.06000000    10.88200000
   N      3.15200000    35.95000000    16.53200000
   C      2.33200000    35.32000000    17.54200000
   C      1.04200000    34.69000000    17.02200000
   O      0.52200000    35.12000000    15.99200000
   C      2.20200000    36.39000000    18.61200000
   C      1.96200000    35.86000000    20.02200000
   N      1.79200000    36.76000000    21.00200000
   O      1.77200000    34.68000000    20.27200000
   H      3.00200000    36.92000000    16.27200000
   H      2.88200000    34.53000000    18.05200000
   H      1.40200000    37.08000000    18.35200000
   H      3.12200000    36.96000000    18.71200000
   H      1.95200000    37.74000000    20.83200000
   H      1.68200000    36.38000000    21.93200000
   N      0.47200000    33.70000000    17.71200000
   C     -0.88800000    33.21000000    17.55200000
   C     -1.83800000    34.39000000    17.51200000
   O     -2.64800000    34.42000000    16.58200000
   C     -1.36800000    32.15000000    18.54200000
   C     -2.72800000    31.59000000    18.18200000
   C     -2.99800000    31.16000000    16.87200000
   C     -3.71800000    31.44000000    19.15200000
   C     -4.30800000    30.82000000    16.52200000
   C     -5.06800000    31.23000000    18.84200000
   C     -5.32800000    30.86000000    17.50200000
   O     -6.57800000    30.52000000    17.10200000
   H      1.00200000    33.36000000    18.50200000
   H     -0.83800000    32.73000000    16.57200000
   H     -1.34800000    32.55000000    19.55200000
   H     -0.68800000    31.30000000    18.51200000
   H     -2.29800000    31.18000000    16.06200000
   H     -3.42800000    31.66000000    20.17200000
   H     -4.56800000    30.51000000    15.52200000
   H     -5.85800000    31.19000000    19.58200000
   H     -7.22800000    30.60000000    17.80200000
   N     -1.71800000    35.40000000    18.37200000
   C     -2.53800000    36.59000000    18.38200000
   C     -2.54800000    37.51000000    17.17200000
   O     -3.58800000    37.94000000    16.66200000
   C     -2.19800000    37.38000000    19.64200000
   C     -3.21800000    38.47000000    19.95200000
   C     -3.11800000    38.97000000    21.38200000
   O     -2.21800000    39.79000000    21.64200000
   O     -3.90800000    38.53000000    22.25200000
   H     -1.03800000    35.31000000    19.12200000
   H     -3.55800000    36.21000000    18.46200000
   H     -1.23800000    37.87000000    19.46200000
   H     -2.15800000    36.75000000    20.53200000
   H     -4.21800000    38.08000000    19.74200000
   H     -2.97800000    39.36000000    19.38200000
   N     -1.35800000    37.63000000    16.57200000
   C     -1.12800000    38.37000000    15.34200000
   C     -1.57800000    37.54000000    14.15200000
   O     -2.02800000    38.18000000    13.20200000
   C      0.34200000    38.72000000    15.17200000
   C      0.91200000    39.78000000    16.11200000
   C      2.42200000    39.93000000    16.02200000
   O      2.97200000    41.04000000    15.90200000
   O      3.09200000    38.88000000    16.11200000
   H     -0.57800000    37.20000000    17.05200000
   H     -1.68800000    39.31000000    15.40200000
   H      0.41200000    39.18000000    14.18200000
   H      0.89200000    37.79000000    15.24200000
   H      0.67200000    39.58000000    17.15200000
   H      0.40200000    40.72000000    15.90200000
   N     -1.47800000    36.21000000    14.17200000
   C     -1.98800000    35.35000000    13.11200000
   H     -2.88900000    35.79300000    12.68800000
   H     -1.23300000    35.24600000    12.33300000
   H     -2.22500000    34.36800000    13.52200000
   H     -0.98800000    35.78000000    14.94200000
  Ca      5.39000000    39.99000000    16.54000000
   O      4.16000000    40.25000000    18.92000000
   H      4.24000000    41.20000000    19.06000000
   H      3.44000000    39.98000000    19.49000000
   O      5.90000000    37.75000000    17.86000000
   H      6.71000000    38.18000000    18.15000000
   H      6.13000000    36.82000000    17.80000000

Ca 1.00



