%chk=loop3.apoCaM-CA-Ng.Init295.run13.water3.chk
%nprocshared=20
%mem=10GB
%nosave
#b3lyp/svp scf=(tight,noincore,xqc) Test 
#IOP(5/87=12) Density=Current Pop=(MK,readradii) iop(6/33=2) iop(6/42=6)

loop3.apoCaM-CA-Ng.Init295.run13.water3 

   0  1 
   C    103.69000000    44.94000000    74.78000000
   C    104.12000000    44.55000000    76.18000000
   O    103.29000000    44.05000000    76.94000000
   H    102.83400000    45.61200000    74.83700000
   H    104.51300000    45.44400000    74.27400000
   H    103.41300000    44.04600000    74.22200000
   N    105.38000000    44.73000000    76.58000000
   C    105.93000000    44.66000000    77.92000000
   C    106.63000000    45.94000000    78.33000000
   O    107.31000000    46.60000000    77.55000000
   C    106.93000000    43.50000000    77.90000000
   C    107.62000000    43.24000000    79.23000000
   O    107.36000000    42.28000000    80.00000000
   O    108.72000000    43.78000000    79.48000000
   H    105.99000000    45.11000000    75.87000000
   H    105.12000000    44.51000000    78.63000000
   H    107.68000000    43.65000000    77.12000000
   H    106.33000000    42.65000000    77.57000000
   N    106.60000000    46.29000000    79.62000000
   C    107.07000000    47.56000000    80.11000000
   C    108.57000000    47.78000000    79.93000000
   O    109.03000000    48.92000000    79.85000000
   C    106.78000000    47.65000000    81.61000000
   C    105.30000000    47.86000000    81.93000000
   C    104.61000000    49.11000000    81.39000000
   C    105.07000000    50.35000000    82.15000000
   N    104.44000000    51.58000000    81.65000000
   H    106.01000000    45.81000000    80.29000000
   H    106.63000000    48.41000000    79.58000000
   H    107.44000000    48.44000000    81.98000000
   H    107.18000000    46.78000000    82.13000000
   H    105.13000000    47.91000000    83.01000000
   H    104.80000000    47.02000000    81.46000000
   H    103.53000000    49.01000000    81.57000000
   H    104.80000000    49.22000000    80.33000000
   H    106.16000000    50.39000000    82.07000000
   H    104.78000000    50.30000000    83.20000000
   H    104.52000000    52.25000000    82.40000000
   H    104.79000000    51.85000000    80.74000000
   H    103.44000000    51.52000000    81.54000000
   N    109.40000000    46.74000000    79.91000000
   C    110.83000000    46.74000000    79.68000000
   C    111.29000000    46.08000000    78.39000000
   O    112.37000000    46.37000000    77.88000000
   C    111.66000000    46.23000000    80.85000000
   C    111.26000000    44.82000000    81.26000000
   O    111.57000000    43.82000000    80.58000000
   O    110.61000000    44.64000000    82.32000000
   H    108.91000000    45.89000000    79.64000000
   H    111.13000000    47.78000000    79.58000000
   H    111.49000000    46.90000000    81.69000000
   H    112.71000000    46.15000000    80.57000000
   N    110.45000000    45.23000000    77.78000000
   C    110.70000000    44.71000000    76.46000000
   C    111.30000000    43.31000000    76.45000000
   O    111.53000000    42.71000000    75.41000000
   H    109.80000000    44.75000000    78.38000000
   H    111.19000000    45.40000000    75.76000000
   H    109.70000000    44.59000000    76.05000000
   N    111.61000000    42.79000000    77.65000000
   C    111.86000000    41.38000000    77.86000000
   C    110.60000000    40.73000000    78.43000000
   O    110.08000000    41.16000000    79.46000000
   C    113.10000000    41.16000000    78.72000000
   C    113.39000000    39.69000000    78.99000000
   N    114.31000000    39.09000000    78.24000000
   O    112.78000000    39.07000000    79.86000000
   H    111.45000000    43.40000000    78.44000000
   H    111.95000000    40.97000000    76.86000000
   H    113.05000000    41.57000000    79.73000000
   H    113.92000000    41.70000000    78.24000000
   H    114.77000000    39.54000000    77.46000000
   H    114.61000000    38.20000000    78.60000000
   N    110.13000000    39.63000000    77.85000000
   C    108.77000000    39.19000000    78.12000000
   C    108.39000000    38.66000000    79.49000000
   O    107.22000000    38.31000000    79.62000000
   H    110.60000000    39.28000000    77.02000000
   H    108.66000000    38.35000000    77.44000000
   H    108.14000000    40.04000000    77.86000000
   N    109.30000000    38.42000000    80.44000000
   C    108.99000000    37.82000000    81.72000000
   C    108.44000000    38.81000000    82.73000000
   O    108.60000000    40.03000000    82.62000000
   C    110.26000000    37.14000000    82.22000000
   C    110.66000000    35.88000000    81.51000000
   C    111.78000000    35.83000000    80.67000000
   C    109.97000000    34.71000000    81.87000000
   C    112.10000000    34.61000000    80.07000000
   C    110.32000000    33.51000000    81.25000000
   C    111.42000000    33.42000000    80.37000000
   O    111.91000000    32.27000000    79.83000000
   H    110.24000000    38.80000000    80.37000000
   H    108.27000000    37.03000000    81.51000000
   H    110.15000000    36.97000000    83.29000000
   H    111.04000000    37.89000000    82.10000000
   H    112.35000000    36.74000000    80.50000000
   H    109.15000000    34.73000000    82.57000000
   H    113.02000000    34.55000000    79.50000000
   H    109.79000000    32.64000000    81.61000000
   H    111.36000000    31.60000000    80.25000000
   N    107.79000000    38.20000000    83.73000000
   C    107.17000000    38.74000000    84.92000000
   C    108.07000000    39.59000000    85.81000000
   O    109.04000000    40.21000000    85.37000000
   C    105.80000000    39.37000000    84.72000000
   C    104.78000000    38.52000000    83.97000000
   C    105.94000000    40.74000000    84.06000000
   C    103.35000000    38.74000000    84.45000000
   H    107.71000000    37.21000000    83.58000000
   H    107.00000000    37.84000000    85.51000000
   H    105.44000000    39.58000000    85.73000000
   H    105.08000000    37.48000000    84.11000000
   H    104.88000000    38.71000000    82.90000000
   H    104.97000000    41.24000000    84.16000000
   H    106.69000000    41.33000000    84.58000000
   H    105.95000000    40.59000000    82.98000000
   H    102.67000000    38.14000000    83.86000000
   H    103.31000000    38.27000000    85.43000000
   H    103.20000000    39.82000000    84.54000000
   N    107.68000000    39.78000000    87.07000000
   C    108.48000000    40.36000000    88.13000000
   C    108.69000000    39.51000000    89.37000000
   O    109.81000000    39.56000000    89.88000000
   C    107.92000000    41.73000000    88.50000000
   O    106.66000000    41.53000000    89.08000000
   H    106.93000000    39.15000000    87.31000000
   H    109.48000000    40.58000000    87.75000000
   H    107.86000000    42.38000000    87.62000000
   H    108.62000000    42.21000000    89.18000000
   H    106.20000000    42.37000000    89.06000000
   N    107.74000000    38.67000000    89.77000000
   C    107.81000000    37.85000000    90.97000000
   C    108.54000000    38.46000000    92.16000000
   O    109.64000000    38.02000000    92.48000000
   C    108.36000000    36.50000000    90.54000000
   H    106.87000000    38.69000000    89.27000000
   H    106.78000000    37.64000000    91.24000000
   H    108.33000000    35.89000000    91.44000000
   H    107.63000000    36.06000000    89.85000000
   H    109.37000000    36.60000000    90.15000000
   N    107.97000000    39.47000000    92.83000000
   C    106.83000000    40.32000000    92.57000000
   C    105.61000000    39.81000000    93.32000000
   O    105.72000000    39.47000000    94.50000000
   C    107.14000000    41.76000000    92.97000000
   H    108.52000000    39.84000000    93.60000000
   H    106.53000000    40.29000000    91.52000000
   H    106.23000000    42.34000000    92.88000000
   H    107.54000000    42.00000000    93.96000000
   H    107.87000000    42.15000000    92.25000000
   N    104.44000000    39.58000000    92.73000000
   C    104.15000000    39.50000000    91.31000000
   C    103.09000000    38.47000000    90.94000000
   O    103.11000000    38.01000000    89.80000000
   C    103.80000000    40.88000000    90.77000000
   C    102.50000000    41.48000000    91.30000000
   C    102.26000000    42.94000000    90.94000000
   O    103.21000000    43.73000000    91.12000000
   O    101.15000000    43.27000000    90.47000000
   H    103.71000000    39.20000000    93.31000000
   H    105.08000000    39.15000000    90.86000000
   H    103.89000000    40.92000000    89.68000000
   H    104.61000000    41.50000000    91.17000000
   H    102.70000000    41.31000000    92.36000000
   H    101.70000000    40.93000000    90.81000000
   N    102.14000000    38.07000000    91.79000000
   C    101.04000000    37.14000000    91.61000000
   H    100.19000000    37.66400000    91.17200000
   H    101.35000000    36.33300000    90.94600000
   H    100.75200000    36.72500000    92.57600000
   H    102.16000000    38.64000000    92.62000000
  Ca    109.41000000    42.41000000    81.64000000
   O    109.56000000    42.61000000    84.29000000
   H    109.57000000    41.72000000    84.64000000
   H    109.26000000    43.16000000    85.01000000
   O    106.99000000    43.59000000    82.64000000
   H    106.18000000    43.88000000    82.21000000
   H    107.05000000    44.13000000    83.43000000
   O    111.52000000    40.91000000    82.25000000
   H    112.34000000    40.47000000    82.00000000
   H    111.43000000    40.72000000    83.18000000

Ca 1.00



