%chk=loop2.holoCaM.run71.water2.chk
%nprocshared=20
%mem=10GB
%nosave
#b3lyp/svp scf=(tight,noincore,xqc) Test 
#IOP(5/87=12) Density=Current Pop=(MK,readradii) iop(6/33=2) iop(6/42=6)

loop2.holoCaM.run71.water2 

   -2  1 
   C     52.99000000    53.06000000    15.02000000
   C     51.63000000    53.33000000    15.65000000
   O     51.69000000    53.71000000    16.82000000
   H     53.73700000    52.94700000    15.80500000
   H     52.94200000    52.14500000    14.43000000
   H     53.26500000    53.89500000    14.37500000
   N     50.49000000    53.05000000    15.01000000
   C     49.19000000    53.26000000    15.61000000
   C     49.01000000    52.39000000    16.85000000
   O     48.69000000    51.21000000    16.69000000
   C     48.08000000    53.04000000    14.58000000
   C     46.76000000    53.58000000    15.13000000
   O     45.73000000    53.47000000    14.44000000
   O     46.72000000    54.21000000    16.21000000
   H     50.56000000    52.78000000    14.04000000
   H     49.18000000    54.32000000    15.88000000
   H     47.99000000    52.00000000    14.30000000
   H     48.30000000    53.61000000    13.68000000
   N     48.86000000    53.01000000    18.02000000
   C     48.77000000    52.29000000    19.28000000
   C     47.40000000    51.67000000    19.50000000
   O     47.26000000    50.63000000    20.13000000
   C     49.06000000    53.28000000    20.40000000
   H     49.15000000    53.97000000    18.14000000
   H     49.52000000    51.49000000    19.32000000
   H     49.16000000    52.74000000    21.34000000
   H     49.98000000    53.83000000    20.24000000
   H     48.29000000    54.06000000    20.40000000
   N     46.34000000    52.30000000    19.00000000
   C     44.94000000    51.95000000    19.18000000
   C     44.53000000    51.03000000    18.03000000
   O     43.55000000    50.31000000    18.19000000
   C     44.12000000    53.21000000    18.93000000
   C     44.58000000    54.44000000    19.70000000
   O     43.97000000    54.64000000    20.77000000
   O     45.38000000    55.24000000    19.17000000
   H     46.54000000    53.13000000    18.47000000
   H     44.79000000    51.58000000    20.19000000
   H     43.06000000    53.06000000    19.13000000
   H     44.28000000    53.39000000    17.87000000
   N     45.22000000    51.04000000    16.89000000
   C     44.85000000    50.28000000    15.71000000
   C     43.55000000    50.70000000    15.05000000
   O     42.99000000    49.88000000    14.32000000
   H     46.10000000    51.54000000    16.84000000
   H     44.67000000    49.24000000    15.99000000
   H     45.62000000    50.29000000    14.94000000
   N     43.08000000    51.94000000    15.21000000
   C     41.93000000    52.37000000    14.44000000
   C     42.28000000    52.86000000    13.04000000
   O     41.38000000    53.21000000    12.27000000
   C     41.21000000    53.35000000    15.36000000
   C     40.12000000    54.11000000    14.62000000
   N     40.28000000    55.38000000    14.25000000
   O     39.06000000    53.55000000    14.34000000
   H     43.58000000    52.51000000    15.88000000
   H     41.31000000    51.50000000    14.24000000
   H     41.92000000    54.04000000    15.82000000
   H     40.65000000    52.74000000    16.07000000
   H     41.16000000    55.82000000    14.45000000
   H     39.56000000    55.81000000    13.68000000
   N     43.56000000    52.97000000    12.68000000
   C     43.96000000    53.45000000    11.38000000
   C     44.25000000    54.95000000    11.35000000
   O     44.33000000    55.50000000    10.26000000
   H     44.29000000    52.75000000    13.35000000
   H     43.22000000    53.21000000    10.62000000
   H     44.89000000    52.94000000    11.11000000
   N     44.46000000    55.64000000    12.48000000
   C     44.81000000    57.04000000    12.50000000
   C     45.88000000    57.53000000    13.46000000
   O     45.95000000    57.07000000    14.60000000
   C     43.53000000    57.80000000    12.85000000
   C     42.39000000    58.00000000    11.86000000
   O     42.88000000    57.32000000    14.01000000
   H     44.57000000    55.14000000    13.35000000
   H     45.05000000    57.29000000    11.46000000
   H     43.80000000    58.82000000    13.12000000
   H     42.20000000    57.95000000    14.26000000
   H     42.09000000    57.05000000    11.42000000
   H     41.52000000    58.47000000    12.32000000
   H     42.70000000    58.70000000    11.08000000
   N     46.61000000    58.58000000    13.06000000
   C     47.79000000    59.03000000    13.75000000
   C     47.49000000    60.30000000    14.53000000
   O     47.20000000    61.37000000    13.99000000
   C     48.98000000    59.20000000    12.80000000
   C     49.30000000    57.90000000    12.07000000
   C     50.18000000    59.95000000    13.37000000
   C     49.70000000    56.70000000    12.91000000
   H     46.53000000    58.97000000    12.13000000
   H     48.17000000    58.28000000    14.45000000
   H     48.70000000    59.86000000    11.98000000
   H     50.14000000    58.12000000    11.41000000
   H     48.52000000    57.52000000    11.40000000
   H     50.76000000    59.42000000    14.13000000
   H     50.80000000    59.98000000    12.48000000
   H     49.95000000    60.98000000    13.66000000
   H     49.97000000    55.85000000    12.27000000
   H     50.45000000    57.07000000    13.61000000
   H     48.83000000    56.42000000    13.50000000
   N     47.56000000    60.13000000    15.86000000
   C     47.68000000    61.22000000    16.80000000
   C     48.97000000    62.02000000    16.71000000
   O     50.00000000    61.53000000    16.24000000
   C     47.43000000    60.67000000    18.20000000
   C     46.26000000    59.75000000    18.57000000
   O     46.44000000    58.52000000    18.71000000
   O     45.13000000    60.26000000    18.65000000
   H     47.83000000    59.20000000    16.14000000
   H     46.96000000    61.98000000    16.50000000
   H     47.35000000    61.53000000    18.86000000
   H     48.32000000    60.09000000    18.46000000
   N     48.98000000    63.27000000    17.18000000
   C     50.19000000    64.05000000    17.36000000
   C     51.38000000    63.35000000    18.00000000
   O     52.49000000    63.48000000    17.49000000
   C     49.94000000    65.34000000    18.13000000
   C     51.14000000    66.24000000    18.30000000
   C     51.87000000    66.66000000    17.19000000
   C     51.54000000    66.59000000    19.59000000
   C     53.01000000    67.44000000    17.38000000
   C     52.78000000    67.22000000    19.78000000
   C     53.50000000    67.68000000    18.67000000
   H     48.13000000    63.61000000    17.61000000
   H     50.51000000    64.43000000    16.39000000
   H     49.49000000    65.11000000    19.10000000
   H     49.14000000    65.89000000    17.63000000
   H     51.67000000    66.22000000    16.22000000
   H     51.02000000    66.19000000    20.45000000
   H     53.62000000    67.61000000    16.50000000
   H     53.13000000    67.38000000    20.79000000
   H     54.46000000    68.13000000    18.87000000
   N     51.30000000    62.72000000    19.18000000
   C     52.42000000    62.01000000    19.76000000
   C     53.05000000    60.92000000    18.90000000
   O     54.24000000    60.66000000    19.01000000
   C     51.98000000    61.45000000    21.12000000
   C     50.47000000    61.44000000    20.93000000
   C     50.16000000    62.67000000    20.07000000
   H     53.19000000    62.77000000    19.91000000
   H     52.38000000    60.45000000    21.28000000
   H     52.19000000    62.21000000    21.87000000
   H     50.28000000    60.55000000    20.34000000
   H     49.96000000    61.47000000    21.89000000
   H     49.21000000    62.56000000    19.56000000
   H     50.07000000    63.53000000    20.75000000
   N     52.22000000    60.24000000    18.11000000
   C     52.54000000    59.25000000    17.11000000
   C     53.21000000    59.84000000    15.88000000
   O     54.25000000    59.36000000    15.43000000
   C     51.34000000    58.37000000    16.74000000
   C     50.59000000    57.67000000    17.87000000
   C     49.27000000    57.09000000    17.39000000
   O     48.55000000    57.59000000    16.50000000
   O     48.79000000    56.07000000    17.93000000
   H     51.33000000    60.66000000    17.87000000
   H     53.33000000    58.59000000    17.47000000
   H     51.84000000    57.65000000    16.08000000
   H     50.67000000    59.05000000    16.21000000
   H     50.40000000    58.40000000    18.65000000
   H     51.26000000    56.86000000    18.16000000
   N     52.79000000    61.01000000    15.39000000
   C     53.44000000    61.81000000    14.37000000
   H     54.44100000    61.42000000    14.18600000
   H     52.85900000    61.76700000    13.44900000
   H     53.51000000    62.84400000    14.70800000
   H     52.00000000    61.44000000    15.84000000
  Ca     46.25000000    56.46000000    17.11000000
   O     44.04000000    55.25000000    15.78000000
   H     44.51000000    54.57000000    15.30000000
   H     43.78000000    55.88000000    15.12000000
   O     44.17000000    58.01000000    17.31000000
   H     44.37000000    58.81000000    17.79000000
   H     43.26000000    58.11000000    17.02000000

Ca 1.00



