%chk=loop4.apoCaM-CA-Ng.Init293.run27.water3.chk
%nprocshared=20
%mem=10GB
%nosave
#b3lyp/svp scf=(tight,noincore,xqc) Test 
#IOP(5/87=12) Density=Current Pop=(MK,readradii) iop(6/33=2) iop(6/42=6)

loop4.apoCaM-CA-Ng.Init293.run27.water3 

   -3  1 
   C     30.19000000    21.90000000    18.99000000
   C     30.77000000    23.29000000    18.83000000
   O     31.92000000    23.53000000    18.46000000
   H     29.22100000    21.85200000    18.49300000
   H     30.86500000    21.17000000    18.54200000
   H     30.06500000    21.67800000    20.05000000
   N     29.99000000    24.36000000    19.04000000
   C     30.24000000    25.73000000    18.65000000
   C     30.87000000    25.98000000    17.29000000
   O     32.08000000    26.19000000    17.17000000
   C     31.00000000    26.43000000    19.77000000
   C     32.24000000    25.75000000    20.32000000
   O     32.14000000    24.99000000    21.31000000
   O     33.36000000    26.09000000    19.87000000
   H     29.07000000    24.22000000    19.43000000
   H     29.24000000    26.17000000    18.70000000
   H     30.36000000    26.51000000    20.65000000
   H     31.22000000    27.48000000    19.61000000
   N     30.06000000    25.80000000    16.24000000
   C     30.48000000    25.88000000    14.86000000
   C     31.12000000    27.20000000    14.45000000
   O     31.59000000    27.33000000    13.32000000
   C     31.13000000    24.57000000    14.40000000
   C     31.16000000    24.27000000    12.91000000
   C     30.62000000    23.28000000    15.03000000
   C     29.90000000    24.45000000    12.08000000
   H     29.08000000    25.62000000    16.42000000
   H     29.51000000    25.96000000    14.36000000
   H     32.17000000    24.71000000    14.71000000
   H     31.62000000    23.33000000    12.61000000
   H     31.93000000    24.88000000    12.41000000
   H     29.57000000    23.07000000    14.83000000
   H     31.19000000    22.39000000    14.77000000
   H     30.71000000    23.43000000    16.11000000
   H     29.23000000    23.62000000    12.30000000
   H     29.35000000    25.39000000    12.18000000
   H     29.98000000    24.45000000    10.99000000
   N     31.32000000    28.20000000    15.31000000
   C     32.07000000    29.43000000    15.16000000
   C     33.54000000    29.14000000    15.41000000
   O     33.99000000    28.66000000    16.44000000
   C     31.47000000    30.54000000    16.03000000
   C     32.27000000    31.83000000    15.92000000
   O     32.87000000    32.08000000    14.86000000
   O     32.37000000    32.54000000    16.95000000
   H     31.00000000    28.01000000    16.25000000
   H     32.07000000    29.80000000    14.14000000
   H     31.35000000    30.18000000    17.05000000
   H     30.49000000    30.85000000    15.65000000
   N     34.46000000    29.37000000    14.47000000
   C     34.30000000    29.52000000    13.04000000
   C     35.55000000    29.95000000    12.28000000
   O     36.60000000    30.11000000    12.89000000
   H     35.39000000    29.31000000    14.85000000
   H     33.58000000    30.31000000    12.82000000
   H     33.97000000    28.60000000    12.54000000
   N     35.52000000    30.11000000    10.96000000
   C     34.44000000    30.19000000     9.99000000
   C     33.84000000    28.85000000     9.59000000
   O     32.62000000    28.69000000     9.66000000
   C     34.84000000    31.11000000     8.85000000
   C     36.26000000    31.09000000     8.32000000
   O     37.18000000    31.65000000     8.95000000
   O     36.40000000    30.50000000     7.23000000
   H     36.44000000    30.27000000    10.56000000
   H     33.61000000    30.66000000    10.53000000
   H     34.66000000    32.09000000     9.30000000
   H     34.08000000    30.97000000     8.07000000
   N     34.58000000    27.86000000     9.09000000
   C     36.00000000    27.66000000     9.30000000
   C     36.53000000    26.52000000     8.43000000
   O     35.80000000    25.88000000     7.68000000
   H     34.03000000    27.06000000     8.81000000
   H     36.08000000    27.37000000    10.35000000
   H     36.55000000    28.58000000     9.12000000
   N     37.84000000    26.32000000     8.48000000
   C     38.60000000    25.42000000     7.63000000
   C     38.53000000    23.97000000     8.07000000
   O     39.12000000    23.12000000     7.41000000
   C     40.01000000    25.86000000     7.27000000
   C     40.04000000    27.03000000     6.29000000
   C     39.31000000    28.27000000     6.80000000
   N     38.30000000    28.75000000     6.07000000
   O     39.50000000    28.75000000     7.91000000
   H     38.34000000    26.77000000     9.23000000
   H     38.11000000    25.28000000     6.66000000
   H     40.61000000    25.07000000     6.82000000
   H     40.50000000    26.22000000     8.18000000
   H     39.66000000    26.65000000     5.34000000
   H     41.09000000    27.29000000     6.14000000
   H     38.08000000    28.49000000     5.12000000
   H     37.69000000    29.41000000     6.53000000
   N     37.86000000    23.51000000     9.13000000
   C     37.61000000    22.13000000     9.50000000
   C     38.11000000    21.98000000    10.93000000
   O     37.50000000    22.63000000    11.78000000
   C     36.13000000    21.81000000     9.28000000
   C     35.88000000    20.32000000     9.41000000
   C     35.75000000    22.07000000     7.82000000
   H     37.42000000    24.25000000     9.66000000
   H     38.13000000    21.39000000     8.90000000
   H     35.53000000    22.45000000     9.92000000
   H     36.23000000    19.97000000    10.38000000
   H     34.80000000    20.17000000     9.37000000
   H     36.28000000    19.77000000     8.55000000
   H     36.44000000    21.68000000     7.08000000
   H     34.73000000    21.74000000     7.61000000
   H     35.61000000    23.13000000     7.59000000
   N     39.03000000    21.05000000    11.17000000
   C     39.60000000    20.82000000    12.49000000
   C     40.77000000    21.73000000    12.81000000
   O     40.99000000    22.05000000    13.97000000
   C     39.95000000    19.38000000    12.83000000
   C     38.86000000    18.42000000    12.34000000
   N     38.81000000    18.10000000    11.05000000
   O     38.01000000    17.93000000    13.07000000
   H     39.42000000    20.46000000    10.44000000
   H     38.82000000    21.10000000    13.19000000
   H     39.98000000    19.22000000    13.90000000
   H     40.88000000    19.09000000    12.35000000
   H     39.62000000    18.21000000    10.45000000
   H     38.36000000    17.21000000    10.86000000
   N     41.38000000    22.35000000    11.79000000
   C     42.33000000    23.45000000    11.85000000
   C     41.75000000    24.61000000    12.64000000
   O     40.61000000    25.05000000    12.44000000
   C     42.63000000    23.89000000    10.42000000
   C     43.46000000    25.14000000    10.26000000
   C     44.84000000    24.93000000    10.36000000
   C     43.03000000    26.47000000    10.12000000
   C     45.79000000    25.96000000    10.24000000
   C     43.94000000    27.51000000     9.88000000
   C     45.33000000    27.25000000     9.92000000
   O     46.21000000    28.27000000     9.72000000
   H     41.14000000    22.08000000    10.85000000
   H     43.22000000    23.08000000    12.34000000
   H     41.70000000    24.11000000     9.88000000
   H     43.11000000    23.06000000     9.90000000
   H     45.14000000    23.90000000    10.44000000
   H     41.99000000    26.75000000    10.15000000
   H     46.86000000    25.82000000    10.34000000
   H     43.55000000    28.51000000     9.85000000
   H     45.80000000    29.08000000     9.42000000
   N     42.52000000    25.08000000    13.62000000
   C     42.10000000    25.98000000    14.67000000
   C     40.79000000    25.71000000    15.41000000
   O     40.35000000    26.61000000    16.12000000
   C     42.24000000    27.42000000    14.18000000
   C     43.66000000    27.65000000    13.67000000
   C     44.68000000    27.66000000    14.80000000
   O     45.78000000    27.06000000    14.69000000
   O     44.44000000    28.23000000    15.88000000
   H     43.41000000    24.65000000    13.85000000
   H     42.85000000    25.92000000    15.46000000
   H     41.96000000    28.22000000    14.87000000
   H     41.60000000    27.46000000    13.30000000
   H     43.67000000    28.65000000    13.22000000
   H     43.89000000    26.98000000    12.84000000
   N     40.25000000    24.49000000    15.45000000
   C     39.00000000    24.24000000    16.15000000
   C     39.20000000    23.12000000    17.17000000
   O     38.62000000    23.22000000    18.24000000
   C     37.83000000    23.79000000    15.27000000
   C     37.20000000    24.96000000    14.52000000
   C     36.38000000    25.94000000    15.36000000
   O     35.14000000    25.90000000    15.29000000
   O     36.90000000    26.78000000    16.12000000
   H     40.65000000    23.79000000    14.85000000
   H     38.67000000    25.10000000    16.73000000
   H     36.97000000    23.42000000    15.82000000
   H     38.11000000    22.94000000    14.64000000
   H     36.58000000    24.49000000    13.76000000
   H     37.96000000    25.60000000    14.09000000
   N     39.86000000    22.00000000    16.89000000
   C     40.17000000    20.92000000    17.80000000
   H     41.03500000    21.19200000    18.40500000
   H     39.31500000    20.73600000    18.45100000
   H     40.39500000    20.01800000    17.23100000
   H     40.11000000    21.88000000    15.92000000
  Ca     34.84000000    26.48000000    17.85000000
   O     35.91000000    28.54000000    19.21000000
   H     35.36000000    29.07000000    19.79000000
   H     36.70000000    28.36000000    19.73000000
   O     36.57000000    24.95000000    19.15000000
   H     37.27000000    24.32000000    19.03000000
   H     36.47000000    25.03000000    20.10000000
   O     34.17000000    23.98000000    17.26000000
   H     33.25000000    23.87000000    17.50000000
   H     34.44000000    23.11000000    16.96000000

Ca 1.00



