%chk=loop3.holoCaM-CaMKII.run68.water1.chk
%nprocshared=20
%mem=10GB
%nosave
#b3lyp/svp scf=(tight,noincore,xqc) Test 
#IOP(5/87=12) Density=Current Pop=(MK,readradii) iop(6/33=2) iop(6/42=6)

loop3.holoCaM-CaMKII.run68.water1 

   0  1 
   C     24.13000000    34.87000000     8.77000000
   C     24.58000000    33.45000000     9.11000000
   O     25.02000000    32.73000000     8.21000000
   H     23.19400000    35.08700000     9.28500000
   H     24.89300000    35.58000000     9.08900000
   H     23.98000000    34.95600000     7.69400000
   N     24.49000000    32.99000000    10.35000000
   C     24.70000000    31.58000000    10.62000000
   C     23.40000000    30.86000000    10.28000000
   O     22.36000000    31.38000000    10.68000000
   C     25.03000000    31.59000000    12.11000000
   C     25.45000000    30.25000000    12.68000000
   O     25.00000000    29.20000000    12.16000000
   O     26.23000000    30.18000000    13.65000000
   H     24.08000000    33.53000000    11.10000000
   H     25.55000000    31.12000000    10.10000000
   H     24.25000000    31.96000000    12.77000000
   H     25.97000000    32.14000000    12.25000000
   N     23.43000000    29.70000000     9.62000000
   C     22.29000000    28.89000000     9.27000000
   C     21.66000000    28.21000000    10.49000000
   O     20.44000000    28.19000000    10.55000000
   C     22.60000000    27.91000000     8.14000000
   C     21.41000000    27.46000000     7.31000000
   C     21.76000000    26.53000000     6.15000000
   C     20.45000000    26.25000000     5.42000000
   N     20.66000000    25.33000000     4.29000000
   H     24.34000000    29.26000000     9.58000000
   H     21.49000000    29.60000000     9.10000000
   H     23.20000000    27.08000000     8.53000000
   H     23.20000000    28.42000000     7.39000000
   H     20.85000000    28.35000000     7.02000000
   H     20.74000000    26.87000000     7.94000000
   H     22.08000000    25.63000000     6.67000000
   H     22.61000000    26.95000000     5.62000000
   H     20.05000000    27.20000000     5.06000000
   H     19.78000000    25.85000000     6.19000000
   H     21.11000000    24.50000000     4.66000000
   H     19.81000000    24.99000000     3.86000000
   H     21.26000000    25.71000000     3.57000000
   N     22.48000000    27.57000000    11.32000000
   C     22.07000000    26.75000000    12.44000000
   C     22.17000000    27.35000000    13.83000000
   O     21.84000000    26.74000000    14.85000000
   C     22.95000000    25.50000000    12.49000000
   C     24.41000000    25.85000000    12.24000000
   O     25.13000000    26.41000000    13.10000000
   O     24.88000000    25.63000000    11.11000000
   H     23.46000000    27.62000000    11.07000000
   H     21.02000000    26.47000000    12.35000000
   H     22.59000000    24.87000000    11.68000000
   H     22.82000000    24.94000000    13.42000000
   N     22.77000000    28.53000000    13.93000000
   C     22.81000000    29.20000000    15.22000000
   C     23.98000000    28.85000000    16.12000000
   O     24.04000000    29.24000000    17.29000000
   H     23.16000000    28.99000000    13.12000000
   H     22.04000000    28.99000000    15.96000000
   H     22.74000000    30.27000000    15.00000000
   N     24.98000000    28.09000000    15.66000000
   C     26.10000000    27.67000000    16.48000000
   C     27.20000000    28.68000000    16.75000000
   O     28.15000000    28.38000000    17.47000000
   C     26.55000000    26.31000000    15.94000000
   C     27.69000000    26.35000000    14.94000000
   N     28.64000000    25.41000000    14.96000000
   O     27.86000000    27.25000000    14.12000000
   H     24.77000000    27.69000000    14.76000000
   H     25.68000000    27.35000000    17.43000000
   H     25.67000000    25.82000000    15.51000000
   H     26.92000000    25.68000000    16.75000000
   H     28.59000000    24.57000000    15.52000000
   H     29.45000000    25.51000000    14.36000000
   N     27.10000000    29.88000000    16.18000000
   C     28.07000000    30.93000000    16.45000000
   C     29.20000000    31.09000000    15.44000000
   O     30.16000000    31.83000000    15.66000000
   H     26.29000000    30.05000000    15.60000000
   H     28.48000000    30.84000000    17.46000000
   H     27.54000000    31.87000000    16.58000000
   N     29.19000000    30.35000000    14.33000000
   C     30.16000000    30.36000000    13.26000000
   C     29.42000000    30.36000000    11.93000000
   O     28.49000000    29.58000000    11.69000000
   C     31.04000000    29.13000000    13.48000000
   C     31.90000000    29.14000000    14.71000000
   C     33.10000000    29.87000000    14.74000000
   C     31.48000000    28.45000000    15.86000000
   C     33.90000000    29.80000000    15.89000000
   C     32.23000000    28.48000000    17.04000000
   C     33.50000000    29.10000000    17.04000000
   O     34.27000000    29.09000000    18.17000000
   H     28.39000000    29.74000000    14.22000000
   H     30.86000000    31.19000000    13.16000000
   H     31.59000000    28.84000000    12.59000000
   H     30.25000000    28.38000000    13.59000000
   H     33.40000000    30.31000000    13.81000000
   H     30.60000000    27.84000000    15.80000000
   H     34.87000000    30.28000000    15.84000000
   H     32.00000000    27.81000000    17.85000000
   H     35.07000000    29.60000000    18.03000000
   N     30.00000000    31.06000000    10.96000000
   C     29.58000000    31.13000000     9.57000000
   C     30.64000000    30.44000000     8.73000000
   O     31.84000000    30.56000000     8.95000000
   C     29.47000000    32.59000000     9.14000000
   C     28.61000000    33.49000000    10.02000000
   C     29.09000000    32.76000000     7.67000000
   C     29.06000000    34.94000000     9.84000000
   H     30.80000000    31.63000000    11.19000000
   H     28.61000000    30.65000000     9.43000000
   H     30.51000000    32.92000000     9.14000000
   H     28.79000000    33.25000000    11.07000000
   H     27.54000000    33.48000000     9.82000000
   H     29.05000000    33.75000000     7.21000000
   H     29.66000000    32.20000000     6.93000000
   H     28.08000000    32.37000000     7.61000000
   H     28.94000000    35.16000000     8.78000000
   H     28.46000000    35.65000000    10.42000000
   H     30.12000000    35.02000000    10.09000000
   N     30.18000000    29.73000000     7.70000000
   C     30.90000000    29.01000000     6.66000000
   C     30.57000000    29.49000000     5.25000000
   O     29.72000000    30.36000000     5.11000000
   C     30.77000000    27.51000000     6.95000000
   O     29.46000000    27.01000000     6.83000000
   H     29.18000000    29.81000000     7.59000000
   H     31.96000000    29.22000000     6.79000000
   H     31.18000000    27.31000000     7.94000000
   H     31.36000000    27.00000000     6.20000000
   H     28.97000000    26.94000000     7.65000000
   N     31.10000000    28.91000000     4.18000000
   C     30.92000000    29.43000000     2.84000000
   C     29.53000000    29.07000000     2.33000000
   O     28.81000000    29.92000000     1.82000000
   C     32.00000000    28.96000000     1.86000000
   H     31.93000000    28.34000000     4.33000000
   H     30.91000000    30.52000000     2.92000000
   H     31.87000000    29.64000000     1.02000000
   H     32.98000000    29.03000000     2.34000000
   H     31.83000000    27.94000000     1.53000000
   N     29.11000000    27.84000000     2.63000000
   C     27.83000000    27.29000000     2.23000000
   C     26.68000000    27.98000000     2.94000000
   O     25.65000000    28.26000000     2.33000000
   C     27.88000000    25.77000000     2.41000000
   H     29.78000000    27.24000000     3.09000000
   H     27.78000000    27.48000000     1.16000000
   H     28.06000000    25.65000000     3.48000000
   H     26.93000000    25.31000000     2.14000000
   H     28.64000000    25.31000000     1.79000000
   N     26.85000000    28.35000000     4.22000000
   C     25.95000000    29.22000000     4.95000000
   C     25.83000000    30.68000000     4.55000000
   O     24.74000000    31.25000000     4.47000000
   C     26.47000000    29.15000000     6.38000000
   C     26.23000000    27.82000000     7.09000000
   C     26.69000000    27.86000000     8.54000000
   O     25.94000000    28.40000000     9.39000000
   O     27.78000000    27.37000000     8.90000000
   H     27.77000000    28.18000000     4.59000000
   H     24.94000000    28.81000000     4.86000000
   H     26.09000000    29.99000000     6.96000000
   H     27.55000000    29.22000000     6.28000000
   H     26.75000000    27.01000000     6.57000000
   H     25.16000000    27.66000000     7.04000000
   N     26.99000000    31.29000000     4.29000000
   C     27.06000000    32.54000000     3.57000000
   H     28.10400000    32.79600000     3.38800000
   H     26.54000000    32.44100000     2.61700000
   H     26.59100000    33.32700000     4.16100000
   H     27.87000000    30.83000000     4.46000000
  Ca     26.91000000    27.51000000    11.58000000
   O     29.15000000    26.20000000    11.39000000
   H     29.97000000    26.67000000    11.20000000
   H     29.38000000    25.28000000    11.27000000

Ca 1.00



