%chk=loop4.apoCaM-CA-Ng.Init293.run46.water4.chk
%nprocshared=20
%mem=10GB
%nosave
#b3lyp/svp scf=(tight,noincore,xqc) Test 
#IOP(5/87=12) Density=Current Pop=(MK,readradii) iop(6/33=2) iop(6/42=6)

loop4.apoCaM-CA-Ng.Init293.run46.water4 

   -3  1 
   C     39.12000000    87.58000000    74.16000000
   C     39.12000000    88.32000000    72.83000000
   O     39.13000000    89.55000000    72.73000000
   H     39.73400000    86.68300000    74.07600000
   H     39.52800000    88.22700000    74.93700000
   H     38.10000000    87.29800000    74.42000000
   N     39.21000000    87.58000000    71.72000000
   C     39.14000000    87.85000000    70.30000000
   C     40.17000000    88.86000000    69.80000000
   O     40.44000000    88.90000000    68.61000000
   C     37.70000000    88.05000000    69.84000000
   C     37.03000000    89.12000000    70.69000000
   O     37.41000000    90.31000000    70.61000000
   O     35.98000000    88.74000000    71.25000000
   H     39.37000000    86.60000000    71.90000000
   H     39.56000000    86.94000000    69.87000000
   H     37.10000000    87.15000000    69.83000000
   H     37.62000000    88.36000000    68.79000000
   N     40.87000000    89.59000000    70.68000000
   C     41.89000000    90.56000000    70.32000000
   C     41.24000000    91.85000000    69.85000000
   O     40.29000000    92.40000000    70.41000000
   C     42.80000000    90.77000000    71.53000000
   C     44.06000000    91.43000000    70.96000000
   C     43.07000000    89.51000000    72.34000000
   C     45.03000000    90.76000000    69.99000000
   H     40.78000000    89.32000000    71.64000000
   H     42.44000000    90.12000000    69.49000000
   H     42.33000000    91.46000000    72.23000000
   H     44.63000000    91.71000000    71.85000000
   H     43.82000000    92.39000000    70.52000000
   H     43.43000000    88.70000000    71.71000000
   H     43.85000000    89.72000000    73.08000000
   H     42.22000000    89.21000000    72.95000000
   H     45.39000000    89.85000000    70.49000000
   H     44.40000000    90.49000000    69.15000000
   H     45.80000000    91.41000000    69.58000000
   N     41.76000000    92.30000000    68.71000000
   C     41.58000000    93.65000000    68.23000000
   C     40.12000000    93.81000000    67.81000000
   O     39.43000000    92.81000000    67.60000000
   C     42.55000000    93.86000000    67.08000000
   C     42.60000000    92.70000000    66.10000000
   O     41.93000000    92.90000000    65.06000000
   O     43.11000000    91.60000000    66.43000000
   H     42.47000000    91.68000000    68.34000000
   H     41.83000000    94.37000000    69.01000000
   H     43.51000000    94.05000000    67.57000000
   H     42.24000000    94.79000000    66.60000000
   N     39.64000000    95.04000000    67.60000000
   C     40.25000000    96.30000000    67.95000000
   C     40.44000000    96.52000000    69.45000000
   O     40.13000000    95.68000000    70.29000000
   H     38.78000000    95.14000000    67.08000000
   H     39.58000000    97.11000000    67.65000000
   H     41.13000000    96.55000000    67.36000000
   N     41.28000000    97.47000000    69.87000000
   C     41.92000000    98.53000000    69.12000000
   C     43.13000000    98.05000000    68.33000000
   O     43.28000000    98.27000000    67.13000000
   C     42.37000000    99.71000000    69.96000000
   C     43.23000000   100.73000000    69.23000000
   O     42.67000000   101.75000000    68.76000000
   O     44.48000000   100.62000000    69.22000000
   H     41.55000000    97.43000000    70.84000000
   H     41.24000000    98.89000000    68.34000000
   H     43.10000000    99.35000000    70.68000000
   H     41.49000000   100.15000000    70.42000000
   N     44.14000000    97.38000000    68.89000000
   C     44.31000000    96.88000000    70.24000000
   C     45.51000000    95.95000000    70.30000000
   O     45.89000000    95.32000000    69.32000000
   H     44.91000000    97.18000000    68.27000000
   H     43.43000000    96.32000000    70.55000000
   H     44.41000000    97.75000000    70.90000000
   N     46.15000000    95.85000000    71.47000000
   C     47.45000000    95.29000000    71.77000000
   C     47.54000000    94.70000000    73.17000000
   O     48.63000000    94.66000000    73.73000000
   C     48.62000000    96.24000000    71.50000000
   C     48.73000000    97.49000000    72.37000000
   C     50.07000000    98.22000000    72.26000000
   N     51.12000000    97.76000000    72.95000000
   O     50.20000000    99.21000000    71.56000000
   H     45.79000000    96.40000000    72.23000000
   H     47.65000000    94.43000000    71.13000000
   H     48.54000000    96.52000000    70.45000000
   H     49.55000000    95.70000000    71.66000000
   H     48.65000000    97.21000000    73.42000000
   H     47.89000000    98.15000000    72.17000000
   H     51.06000000    97.10000000    73.71000000
   H     51.97000000    98.28000000    72.77000000
   N     46.51000000    94.17000000    73.83000000
   C     46.44000000    93.75000000    75.22000000
   C     45.07000000    94.03000000    75.83000000
   O     44.09000000    94.15000000    75.11000000
   C     46.82000000    92.29000000    75.41000000
   C     48.27000000    91.84000000    75.26000000
   C     46.00000000    91.49000000    74.40000000
   H     45.59000000    94.20000000    73.41000000
   H     47.17000000    94.34000000    75.77000000
   H     46.45000000    92.09000000    76.42000000
   H     48.69000000    92.25000000    74.34000000
   H     48.86000000    92.30000000    76.06000000
   H     48.42000000    90.76000000    75.26000000
   H     46.06000000    90.42000000    74.58000000
   H     44.96000000    91.75000000    74.60000000
   H     46.30000000    91.59000000    73.35000000
   N     45.02000000    94.21000000    77.16000000
   C     43.87000000    94.21000000    78.05000000
   C     43.10000000    95.50000000    78.30000000
   O     42.04000000    95.51000000    78.93000000
   C     44.25000000    93.56000000    79.37000000
   C     44.81000000    92.15000000    79.30000000
   N     46.02000000    91.92000000    79.83000000
   O     44.25000000    91.29000000    78.62000000
   H     45.91000000    94.41000000    77.57000000
   H     43.18000000    93.52000000    77.58000000
   H     43.39000000    93.50000000    80.05000000
   H     45.05000000    94.20000000    79.72000000
   H     46.46000000    92.61000000    80.42000000
   H     46.33000000    90.96000000    79.81000000
   N     43.65000000    96.67000000    77.99000000
   C     42.99000000    97.95000000    78.21000000
   C     41.58000000    98.01000000    77.65000000
   O     41.36000000    97.77000000    76.46000000
   C     43.88000000    99.07000000    77.69000000
   C     43.36000000   100.47000000    77.90000000
   C     42.96000000   101.23000000    76.79000000
   C     43.34000000   100.96000000    79.21000000
   C     42.80000000   102.61000000    76.97000000
   C     43.02000000   102.30000000    79.44000000
   C     42.83000000   103.10000000    78.29000000
   O     42.56000000   104.42000000    78.50000000
   H     44.43000000    96.61000000    77.35000000
   H     43.01000000    98.07000000    79.30000000
   H     43.88000000    98.89000000    76.62000000
   H     44.90000000    98.94000000    78.07000000
   H     42.88000000   100.83000000    75.80000000
   H     43.52000000   100.29000000    80.04000000
   H     42.56000000   103.22000000    76.11000000
   H     42.95000000   102.69000000    80.45000000
   H     42.44000000   104.85000000    77.64000000
   N     40.60000000    98.34000000    78.49000000
   C     39.22000000    98.23000000    78.07000000
   C     38.69000000    96.84000000    77.72000000
   O     37.56000000    96.65000000    77.27000000
   C     38.89000000    99.35000000    77.09000000
   C     39.50000000   100.71000000    77.43000000
   C     38.99000000   101.77000000    76.46000000
   O     38.88000000   101.61000000    75.22000000
   O     38.46000000   102.81000000    76.90000000
   H     40.73000000    98.42000000    79.49000000
   H     38.61000000    98.46000000    78.94000000
   H     37.82000000    99.42000000    76.88000000
   H     39.28000000    99.07000000    76.11000000
   H     40.55000000   100.48000000    77.26000000
   H     39.19000000   101.03000000    78.42000000
   N     39.44000000    95.76000000    77.94000000
   C     39.03000000    94.38000000    77.98000000
   C     38.98000000    93.84000000    79.41000000
   O     38.67000000    92.66000000    79.56000000
   C     40.01000000    93.45000000    77.27000000
   C     40.40000000    93.80000000    75.84000000
   C     39.73000000    92.92000000    74.80000000
   O     38.48000000    92.85000000    74.80000000
   O     40.39000000    92.30000000    73.93000000
   H     40.40000000    95.98000000    78.17000000
   H     38.06000000    94.15000000    77.53000000
   H     39.72000000    92.40000000    77.31000000
   H     40.92000000    93.57000000    77.87000000
   H     41.47000000    93.59000000    75.79000000
   H     40.10000000    94.82000000    75.61000000
   N     39.41000000    94.62000000    80.40000000
   C     39.43000000    94.17000000    81.78000000
   H     39.19400000    95.00600000    82.43800000
   H     38.69000000    93.38100000    81.91600000
   H     40.42100000    93.78600000    82.02300000
   H     39.70000000    95.56000000    80.19000000
  Ca     38.32000000    91.96000000    72.22000000
   O     37.57000000    93.16000000    69.65000000
   H     38.41000000    92.98000000    69.22000000
   H     37.26000000    93.96000000    69.24000000
   O     35.98000000    93.17000000    72.28000000
   H     35.22000000    93.00000000    72.84000000
   H     35.61000000    93.54000000    71.48000000
   O     38.80000000    94.56000000    72.35000000
   H     38.69000000    95.36000000    72.88000000
   H     39.36000000    94.83000000    71.63000000
   O     36.52000000    90.37000000    73.51000000
   H     35.74000000    90.69000000    73.97000000
   H     36.22000000    89.56000000    73.09000000

Ca 1.00



