%chk=loop1.apoCaM-CA-Ng.Init31.run2.water5.chk
%nprocshared=20
%mem=10GB
%nosave
#b3lyp/svp scf=(tight,noincore,xqc) Test 
#IOP(5/87=12) Density=Current Pop=(MK,readradii) iop(6/33=2) iop(6/42=6)

loop1.apoCaM-CA-Ng.Init31.run2.water5 

   0  1 
   C     43.21000000    65.86000000    -0.83000000
   C     41.87000000    65.14000000    -0.83000000
   O     41.35000000    64.86000000    -1.91000000
   H     43.95100000    65.24700000    -1.34300000
   H     43.11000000    66.81500000    -1.34500000
   H     43.53100000    66.03200000     0.19700000
   N     41.26000000    64.83000000     0.31000000
   C     40.00000000    64.12000000     0.40000000
   C     38.78000000    64.99000000     0.66000000
   O     38.89000000    65.79000000     1.59000000
   C     40.16000000    63.07000000     1.50000000
   C     39.04000000    62.04000000     1.57000000
   O     39.19000000    60.91000000     1.06000000
   O     38.01000000    62.37000000     2.20000000
   H     41.74000000    65.05000000     1.18000000
   H     39.77000000    63.55000000    -0.50000000
   H     40.35000000    63.52000000     2.47000000
   H     41.08000000    62.51000000     1.32000000
   N     37.72000000    64.78000000    -0.13000000
   C     36.40000000    65.38000000    -0.07000000
   C     35.19000000    64.47000000     0.00000000
   O     34.18000000    64.94000000     0.52000000
   C     36.07000000    66.27000000    -1.26000000
   C     37.07000000    67.42000000    -1.37000000
   C     36.54000000    68.64000000    -2.14000000
   C     37.52000000    69.80000000    -2.25000000
   N     37.24000000    70.56000000    -3.48000000
   H     37.84000000    64.12000000    -0.88000000
   H     36.25000000    65.95000000     0.85000000
   H     35.08000000    66.70000000    -1.12000000
   H     35.99000000    65.77000000    -2.23000000
   H     37.97000000    67.08000000    -1.88000000
   H     37.34000000    67.82000000    -0.39000000
   H     35.58000000    68.89000000    -1.70000000
   H     36.25000000    68.26000000    -3.12000000
   H     38.54000000    69.46000000    -2.38000000
   H     37.42000000    70.36000000    -1.32000000
   H     37.26000000    69.94000000    -4.28000000
   H     36.31000000    70.93000000    -3.44000000
   H     37.92000000    71.30000000    -3.60000000
   N     35.11000000    63.17000000    -0.29000000
   C     36.03000000    62.22000000    -0.88000000
   C     35.58000000    60.85000000    -0.39000000
   O     34.39000000    60.56000000    -0.50000000
   C     35.97000000    62.28000000    -2.40000000
   C     36.78000000    61.19000000    -3.10000000
   O     38.03000000    61.23000000    -3.09000000
   O     36.22000000    60.30000000    -3.77000000
   H     34.29000000    62.68000000     0.05000000
   H     37.01000000    62.51000000    -0.51000000
   H     36.26000000    63.28000000    -2.72000000
   H     34.94000000    62.24000000    -2.75000000
   N     36.39000000    60.11000000     0.37000000
   C     36.12000000    58.76000000     0.83000000
   C     37.13000000    57.70000000     0.39000000
   O     36.73000000    56.55000000     0.23000000
   H     37.31000000    60.50000000     0.45000000
   H     35.13000000    58.43000000     0.54000000
   H     36.22000000    58.77000000     1.92000000
   N     38.39000000    58.04000000     0.15000000
   C     39.52000000    57.18000000    -0.16000000
   C     39.91000000    56.18000000     0.92000000
   O     39.11000000    55.93000000     1.82000000
   C     39.40000000    56.57000000    -1.56000000
   C     39.05000000    57.54000000    -2.68000000
   O     37.96000000    57.46000000    -3.28000000
   O     39.85000000    58.47000000    -2.91000000
   H     38.65000000    59.01000000     0.28000000
   H     40.36000000    57.86000000    -0.20000000
   H     38.66000000    55.78000000    -1.49000000
   H     40.36000000    56.13000000    -1.79000000
   N     41.07000000    55.52000000     0.95000000
   C     42.35000000    55.75000000     0.32000000
   C     42.64000000    55.09000000    -1.02000000
   O     43.35000000    55.66000000    -1.85000000
   H     41.16000000    54.86000000     1.71000000
   H     43.17000000    55.52000000     1.00000000
   H     42.39000000    56.80000000     0.02000000
   N     41.97000000    53.98000000    -1.35000000
   C     42.17000000    53.16000000    -2.52000000
   C     43.52000000    52.47000000    -2.45000000
   O     44.49000000    52.75000000    -3.16000000
   C     41.77000000    53.79000000    -3.85000000
   C     40.26000000    53.98000000    -3.96000000
   O     42.11000000    52.96000000    -4.93000000
   H     41.32000000    53.54000000    -0.71000000
   H     41.44000000    52.37000000    -2.36000000
   H     42.22000000    54.78000000    -3.93000000
   H     42.91000000    53.33000000    -5.32000000
   H     39.75000000    53.02000000    -4.04000000
   H     39.88000000    54.52000000    -3.09000000
   H     40.05000000    54.47000000    -4.91000000
   N     43.56000000    51.55000000    -1.49000000
   C     44.66000000    50.64000000    -1.24000000
   C     44.91000000    49.60000000    -2.33000000
   O     44.58000000    48.43000000    -2.15000000
   C     45.93000000    51.31000000    -0.72000000
   C     45.72000000    52.34000000     0.39000000
   C     46.80000000    50.16000000    -0.23000000
   C     46.98000000    53.12000000     0.76000000
   H     42.68000000    51.48000000    -0.99000000
   H     44.29000000    50.04000000    -0.41000000
   H     46.48000000    51.74000000    -1.56000000
   H     45.38000000    51.82000000     1.29000000
   H     45.02000000    53.12000000     0.14000000
   H     46.24000000    49.53000000     0.46000000
   H     47.20000000    49.57000000    -1.05000000
   H     47.63000000    50.51000000     0.39000000
   H     47.71000000    52.50000000     1.28000000
   H     47.37000000    53.67000000    -0.10000000
   H     46.69000000    53.87000000     1.50000000
   N     45.38000000    50.06000000    -3.49000000
   C     45.66000000    49.21000000    -4.63000000
   C     46.71000000    49.81000000    -5.56000000
   O     46.97000000    51.01000000    -5.51000000
   C     44.40000000    48.78000000    -5.38000000
   C     43.59000000    50.00000000    -5.81000000
   O     43.55000000    47.93000000    -4.65000000
   H     45.38000000    51.05000000    -3.67000000
   H     46.15000000    48.31000000    -4.25000000
   H     44.74000000    48.17000000    -6.22000000
   H     43.91000000    47.84000000    -3.76000000
   H     42.70000000    49.69000000    -6.36000000
   H     43.33000000    50.68000000    -5.00000000
   H     44.10000000    50.66000000    -6.51000000
   N     47.28000000    48.93000000    -6.39000000
   C     48.21000000    49.38000000    -7.41000000
   C     47.56000000    50.41000000    -8.33000000
   O     46.35000000    50.31000000    -8.55000000
   C     48.81000000    48.25000000    -8.24000000
   C     47.91000000    47.51000000    -9.23000000
   O     49.80000000    48.78000000    -9.08000000
   H     47.05000000    47.95000000    -6.31000000
   H     48.98000000    49.95000000    -6.88000000
   H     49.18000000    47.48000000    -7.55000000
   H     50.20000000    49.53000000    -8.62000000
   H     46.97000000    47.21000000    -8.76000000
   H     47.67000000    48.04000000   -10.15000000
   H     48.40000000    46.57000000    -9.48000000
   N     48.33000000    51.34000000    -8.89000000
   C     47.96000000    52.33000000    -9.88000000
   C     46.85000000    53.22000000    -9.34000000
   O     45.78000000    53.43000000    -9.92000000
   C     47.62000000    51.57000000   -11.16000000
   C     48.86000000    50.96000000   -11.81000000
   C     49.45000000    52.04000000   -12.71000000
   C     50.68000000    51.49000000   -13.42000000
   N     51.95000000    51.43000000   -12.67000000
   H     49.30000000    51.12000000    -8.72000000
   H     48.81000000    53.01000000    -9.97000000
   H     47.19000000    52.31000000   -11.83000000
   H     46.86000000    50.80000000   -11.00000000
   H     48.67000000    50.14000000   -12.49000000
   H     49.68000000    50.80000000   -11.11000000
   H     49.73000000    52.96000000   -12.18000000
   H     48.71000000    52.25000000   -13.48000000
   H     50.88000000    52.15000000   -14.26000000
   H     50.43000000    50.50000000   -13.78000000
   H     52.12000000    50.64000000   -12.06000000
   H     52.74000000    51.51000000   -13.30000000
   H     51.95000000    52.23000000   -12.07000000
   N     47.00000000    53.79000000    -8.14000000
   C     46.03000000    54.62000000    -7.45000000
   C     45.64000000    54.14000000    -6.06000000
   O     44.43000000    54.10000000    -5.84000000
   C     46.43000000    56.09000000    -7.43000000
   C     45.89000000    56.86000000    -8.63000000
   C     46.56000000    58.22000000    -8.71000000
   O     45.79000000    59.13000000    -9.09000000
   O     47.74000000    58.42000000    -8.34000000
   H     47.83000000    53.51000000    -7.64000000
   H     45.13000000    54.59000000    -8.07000000
   H     47.51000000    56.12000000    -7.57000000
   H     46.23000000    56.68000000    -6.54000000
   H     44.86000000    57.14000000    -8.39000000
   H     46.03000000    56.27000000    -9.53000000
   N     46.46000000    53.86000000    -5.04000000
   C     47.91000000    53.79000000    -4.93000000
   H     48.33100000    54.79000000    -5.03600000
   H     48.18200000    53.38300000    -3.95600000
   H     48.30400000    53.14600000    -5.71600000
   H     45.93000000    53.51000000    -4.26000000
  Ca     38.50000000    59.44000000    -4.97200000
   O     37.87000000    61.48000000    -6.45200000
   H     37.20000000    62.16000000    -6.38200000
   H     38.37000000    61.73000000    -7.23200000
   O     39.03000000    59.13000000    -7.65200000
   H     38.52000000    59.47000000    -8.38200000
   H     39.82000000    58.78000000    -8.06200000
   O     36.73000000    57.83000000    -5.90200000
   H     35.78000000    57.94000000    -6.02200000
   H     36.83000000    56.95000000    -5.55200000
   O     40.80000000    60.81000000    -5.14200000
   H     41.06000000    61.03000000    -6.03200000
   H     41.17000000    61.50000000    -4.60200000
   O     39.79000000    57.21000000    -5.84200000
   H     39.43000000    56.89000000    -6.66200000
   H     40.70000000    56.90000000    -5.83200000

Ca 1.00



