%chk=loop4.holoCaM-CaMKII.run92.water2.chk
%nprocshared=20
%mem=10GB
%nosave
#b3lyp/svp scf=(tight,noincore,xqc) Test 
#IOP(5/87=12) Density=Current Pop=(MK,readradii) iop(6/33=2) iop(6/42=6)

loop4.holoCaM-CaMKII.run92.water2 

   -3  1 
   C     55.62000000    27.20000000    22.25000000
   C     55.64000000    28.25000000    23.36000000
   O     56.21000000    29.33000000    23.27000000
   H     55.78500000    27.68600000    21.28800000
   H     56.40800000    26.46800000    22.42700000
   H     54.65300000    26.69800000    22.24100000
   N     55.04000000    27.96000000    24.52000000
   C     55.11000000    28.83000000    25.67000000
   C     56.49000000    28.74000000    26.31000000
   O     57.06000000    27.68000000    26.57000000
   C     53.96000000    28.39000000    26.59000000
   C     53.87000000    29.04000000    27.96000000
   O     54.56000000    30.06000000    28.20000000
   O     53.19000000    28.55000000    28.88000000
   H     54.59000000    27.06000000    24.54000000
   H     54.82000000    29.84000000    25.37000000
   H     53.91000000    27.31000000    26.68000000
   H     53.04000000    28.53000000    26.02000000
   N     57.01000000    29.92000000    26.63000000
   C     58.38000000    30.05000000    27.08000000
   C     58.35000000    30.21000000    28.59000000
   O     59.34000000    29.87000000    29.23000000
   C     59.02000000    31.11000000    26.18000000
   C     59.38000000    30.47000000    24.85000000
   C     60.26000000    31.70000000    26.84000000
   C     59.66000000    31.56000000    23.82000000
   H     56.39000000    30.72000000    26.59000000
   H     58.93000000    29.12000000    26.94000000
   H     58.28000000    31.91000000    26.06000000
   H     58.57000000    29.86000000    24.44000000
   H     60.22000000    29.78000000    24.93000000
   H     60.62000000    32.60000000    26.34000000
   H     60.06000000    32.03000000    27.86000000
   H     61.09000000    30.98000000    26.84000000
   H     59.79000000    31.12000000    22.83000000
   H     58.87000000    32.27000000    23.59000000
   H     60.52000000    32.19000000    24.06000000
   N     57.29000000    30.76000000    29.19000000
   C     57.28000000    31.03000000    30.62000000
   C     56.22000000    30.32000000    31.43000000
   O     56.26000000    30.51000000    32.65000000
   C     57.28000000    32.53000000    30.92000000
   C     56.23000000    33.30000000    30.13000000
   O     56.48000000    34.47000000    29.77000000
   O     55.12000000    32.75000000    29.94000000
   H     56.47000000    31.05000000    28.68000000
   H     58.19000000    30.63000000    31.05000000
   H     58.25000000    32.93000000    30.64000000
   H     57.06000000    32.80000000    31.96000000
   N     55.49000000    29.32000000    30.92000000
   C     54.91000000    28.32000000    31.79000000
   C     53.60000000    28.78000000    32.41000000
   O     53.41000000    28.75000000    33.63000000
   H     55.41000000    29.30000000    29.91000000
   H     55.66000000    28.05000000    32.53000000
   H     54.65000000    27.39000000    31.28000000
   N     52.67000000    29.20000000    31.55000000
   C     51.33000000    29.63000000    31.89000000
   C     50.24000000    28.96000000    31.05000000
   O     49.08000000    29.32000000    31.17000000
   C     51.24000000    31.15000000    31.89000000
   C     51.81000000    31.85000000    30.66000000
   O     52.34000000    32.97000000    30.79000000
   O     51.56000000    31.32000000    29.56000000
   H     53.02000000    29.14000000    30.60000000
   H     51.03000000    29.33000000    32.89000000
   H     51.64000000    31.51000000    32.85000000
   H     50.20000000    31.40000000    32.10000000
   N     50.61000000    28.19000000    30.03000000
   C     49.75000000    27.52000000    29.07000000
   C     49.02000000    28.42000000    28.08000000
   O     47.98000000    28.07000000    27.52000000
   H     51.59000000    27.98000000    29.90000000
   H     49.09000000    26.83000000    29.59000000
   H     50.41000000    26.84000000    28.52000000
   N     49.59000000    29.60000000    27.85000000
   C     49.15000000    30.53000000    26.83000000
   C     50.35000000    31.05000000    26.05000000
   O     51.53000000    31.12000000    26.39000000
   C     48.29000000    31.66000000    27.41000000
   C     46.88000000    31.23000000    27.78000000
   C     45.90000000    32.39000000    27.83000000
   N     45.85000000    33.11000000    28.95000000
   O     45.32000000    32.88000000    26.86000000
   H     50.41000000    29.80000000    28.41000000
   H     48.57000000    29.94000000    26.12000000
   H     48.16000000    32.40000000    26.61000000
   H     48.73000000    32.13000000    28.28000000
   H     46.89000000    30.74000000    28.75000000
   H     46.56000000    30.46000000    27.07000000
   H     46.29000000    32.63000000    29.72000000
   H     45.43000000    34.02000000    29.09000000
   N     50.10000000    31.36000000    24.78000000
   C     51.11000000    31.79000000    23.83000000
   C     50.77000000    33.22000000    23.44000000
   O     49.79000000    33.57000000    22.79000000
   C     51.19000000    30.82000000    22.66000000
   C     52.26000000    31.32000000    21.69000000
   C     51.54000000    29.46000000    23.27000000
   H     49.21000000    31.18000000    24.34000000
   H     52.11000000    31.78000000    24.28000000
   H     50.24000000    30.66000000    22.14000000
   H     53.20000000    31.57000000    22.17000000
   H     52.38000000    30.53000000    20.95000000
   H     51.87000000    32.14000000    21.09000000
   H     51.73000000    28.76000000    22.46000000
   H     52.41000000    29.44000000    23.93000000
   H     50.75000000    28.97000000    23.84000000
   N     51.69000000    34.11000000    23.79000000
   C     51.67000000    35.51000000    23.40000000
   C     52.41000000    35.64000000    22.08000000
   O     53.26000000    34.83000000    21.70000000
   C     52.27000000    36.25000000    24.59000000
   C     52.34000000    37.77000000    24.50000000
   N     51.22000000    38.48000000    24.58000000
   O     53.40000000    38.39000000    24.45000000
   H     52.50000000    33.80000000    24.32000000
   H     50.65000000    35.77000000    23.16000000
   H     53.31000000    35.95000000    24.70000000
   H     51.60000000    36.04000000    25.42000000
   H     50.30000000    38.06000000    24.58000000
   H     51.29000000    39.48000000    24.71000000
   N     52.22000000    36.81000000    21.46000000
   C     52.90000000    37.21000000    20.25000000
   C     54.41000000    37.08000000    20.39000000
   O     55.12000000    36.53000000    19.55000000
   C     52.40000000    38.52000000    19.64000000
   C     53.06000000    38.89000000    18.33000000
   C     52.81000000    38.32000000    17.08000000
   C     54.16000000    39.75000000    18.46000000
   C     53.61000000    38.52000000    15.95000000
   C     54.91000000    40.11000000    17.33000000
   C     54.62000000    39.50000000    16.09000000
   O     55.25000000    39.97000000    14.98000000
   H     51.48000000    37.40000000    21.82000000
   H     52.53000000    36.51000000    19.49000000
   H     52.58000000    39.29000000    20.39000000
   H     51.34000000    38.39000000    19.45000000
   H     52.03000000    37.58000000    17.07000000
   H     54.38000000    40.21000000    19.41000000
   H     53.43000000    38.02000000    15.01000000
   H     55.71000000    40.83000000    17.39000000
   H     56.04000000    40.44000000    15.24000000
   N     54.95000000    37.44000000    21.55000000
   C     56.37000000    37.49000000    21.85000000
   C     57.01000000    36.11000000    21.76000000
   O     58.23000000    36.03000000    21.64000000
   C     56.50000000    38.11000000    23.24000000
   C     57.91000000    38.66000000    23.44000000
   C     58.03000000    39.39000000    24.77000000
   O     57.12000000    39.27000000    25.62000000
   O     58.96000000    40.21000000    24.89000000
   H     54.34000000    37.80000000    22.26000000
   H     56.92000000    38.10000000    21.13000000
   H     56.21000000    37.40000000    24.01000000
   H     55.85000000    38.97000000    23.42000000
   H     58.20000000    39.41000000    22.70000000
   H     58.60000000    37.83000000    23.36000000
   N     56.29000000    35.00000000    21.90000000
   C     56.76000000    33.64000000    22.10000000
   C     56.48000000    32.89000000    20.81000000
   O     57.25000000    31.99000000    20.46000000
   C     55.99000000    33.01000000    23.25000000
   C     55.82000000    33.79000000    24.56000000
   C     55.12000000    33.00000000    25.65000000
   O     55.64000000    32.39000000    26.60000000
   O     53.87000000    33.03000000    25.59000000
   H     55.29000000    35.16000000    21.86000000
   H     57.83000000    33.49000000    22.28000000
   H     56.47000000    32.10000000    23.62000000
   H     54.99000000    32.82000000    22.87000000
   H     55.20000000    34.67000000    24.38000000
   H     56.83000000    34.08000000    24.84000000
   N     55.42000000    33.24000000    20.08000000
   C     55.11000000    32.75000000    18.75000000
   H     54.29100000    33.33400000    18.33000000
   H     55.98900000    32.84700000    18.11300000
   H     54.81600000    31.70200000    18.80800000
   H     54.71000000    33.81000000    20.51000000
  Ca     53.36000000    32.38000000    28.11000000
   O     51.06000000    33.87000000    27.74000000
   H     50.36000000    33.95000000    28.40000000
   H     50.99000000    34.67000000    27.22000000
   O     53.78000000    35.11000000    27.88000000
   H     54.63000000    35.36000000    27.53000000
   H     53.80000000    35.40000000    28.79000000

Ca 1.00



