%chk=loop3.holoCaM-CaMKII.run99.water2.chk
%nprocshared=20
%mem=10GB
%nosave
#b3lyp/svp scf=(tight,noincore,xqc) Test 
#IOP(5/87=12) Density=Current Pop=(MK,readradii) iop(6/33=2) iop(6/42=6)

loop3.holoCaM-CaMKII.run99.water2 

   0  1 
   C     43.09000000    28.54000000    93.55000000
   C     42.22000000    29.56000000    94.26000000
   O     42.28000000    29.64000000    95.49000000
   H     44.05100000    28.46500000    94.06000000
   H     42.59600000    27.56800000    93.56300000
   H     43.25000000    28.85300000    92.51800000
   N     41.28000000    30.23000000    93.59000000
   C     40.45000000    31.32000000    94.05000000
   C     38.99000000    30.90000000    94.14000000
   O     38.13000000    31.56000000    93.55000000
   C     40.74000000    32.56000000    93.22000000
   C     40.14000000    33.81000000    93.86000000
   O     39.84000000    34.80000000    93.16000000
   O     39.84000000    33.77000000    95.07000000
   H     41.31000000    30.13000000    92.58000000
   H     40.94000000    31.56000000    95.00000000
   H     40.32000000    32.37000000    92.23000000
   H     41.79000000    32.78000000    93.01000000
   N     38.70000000    29.80000000    94.85000000
   C     37.39000000    29.25000000    95.08000000
   C     36.44000000    30.23000000    95.76000000
   O     35.22000000    30.19000000    95.58000000
   C     37.49000000    28.04000000    96.01000000
   C     38.13000000    26.84000000    95.32000000
   C     37.38000000    26.19000000    94.16000000
   C     38.06000000    24.84000000    93.98000000
   N     37.61000000    24.07000000    92.81000000
   H     39.50000000    29.33000000    95.26000000
   H     37.01000000    28.95000000    94.10000000
   H     36.54000000    27.78000000    96.48000000
   H     38.22000000    28.37000000    96.75000000
   H     38.18000000    26.06000000    96.08000000
   H     39.16000000    27.09000000    95.09000000
   H     37.41000000    26.84000000    93.28000000
   H     36.35000000    26.09000000    94.52000000
   H     37.79000000    24.34000000    94.91000000
   H     39.15000000    24.93000000    93.93000000
   H     36.65000000    23.76000000    92.88000000
   H     37.58000000    24.60000000    91.95000000
   H     38.19000000    23.26000000    92.69000000
   N     37.04000000    31.18000000    96.48000000
   C     36.36000000    32.32000000    97.08000000
   C     36.07000000    33.54000000    96.22000000
   O     35.14000000    34.27000000    96.58000000
   C     37.00000000    32.81000000    98.37000000
   C     38.34000000    33.46000000    98.07000000
   O     39.42000000    32.84000000    98.24000000
   O     38.42000000    34.65000000    97.71000000
   H     38.04000000    31.09000000    96.60000000
   H     35.37000000    31.95000000    97.33000000
   H     37.13000000    32.03000000    99.13000000
   H     36.31000000    33.55000000    98.77000000
   N     36.75000000    33.61000000    95.07000000
   C     36.27000000    34.38000000    93.94000000
   C     36.55000000    35.88000000    93.99000000
   O     35.94000000    36.68000000    93.29000000
   H     37.56000000    33.02000000    94.96000000
   H     35.20000000    34.27000000    93.80000000
   H     36.74000000    33.99000000    93.04000000
   N     37.54000000    36.35000000    94.75000000
   C     37.90000000    37.76000000    94.78000000
   C     38.82000000    38.28000000    93.69000000
   O     39.06000000    39.48000000    93.69000000
   C     38.24000000    38.19000000    96.21000000
   C     39.62000000    37.73000000    96.65000000
   N     40.06000000    38.16000000    97.84000000
   O     40.32000000    36.89000000    96.09000000
   H     38.13000000    35.64000000    95.15000000
   H     37.03000000    38.34000000    94.48000000
   H     37.49000000    37.75000000    96.87000000
   H     38.17000000    39.28000000    96.26000000
   H     39.54000000    38.97000000    98.13000000
   H     41.01000000    37.92000000    98.08000000
   N     39.32000000    37.50000000    92.73000000
   C     40.37000000    37.89000000    91.80000000
   C     41.81000000    37.90000000    92.30000000
   O     42.66000000    38.53000000    91.67000000
   H     39.21000000    36.51000000    92.90000000
   H     40.17000000    38.94000000    91.61000000
   H     40.47000000    37.29000000    90.90000000
   N     42.01000000    37.18000000    93.40000000
   C     43.23000000    37.18000000    94.19000000
   C     43.51000000    35.81000000    94.78000000
   O     42.56000000    35.05000000    94.99000000
   C     43.32000000    38.34000000    95.18000000
   C     43.21000000    39.65000000    94.44000000
   C     44.33000000    40.26000000    93.86000000
   C     42.01000000    40.36000000    94.48000000
   C     44.15000000    41.45000000    93.14000000
   C     41.80000000    41.56000000    93.79000000
   C     42.91000000    42.11000000    93.11000000
   O     42.78000000    43.26000000    92.37000000
   H     41.20000000    36.80000000    93.87000000
   H     44.01000000    37.33000000    93.45000000
   H     44.22000000    38.47000000    95.77000000
   H     42.49000000    38.29000000    95.89000000
   H     45.30000000    39.79000000    93.80000000
   H     41.14000000    39.91000000    94.95000000
   H     44.93000000    41.86000000    92.51000000
   H     40.86000000    42.09000000    93.75000000
   H     43.48000000    43.41000000    91.74000000
   N     44.76000000    35.52000000    95.13000000
   C     45.26000000    34.28000000    95.71000000
   C     46.06000000    34.75000000    96.92000000
   O     46.91000000    35.62000000    96.72000000
   C     46.04000000    33.43000000    94.71000000
   C     45.16000000    32.83000000    93.62000000
   C     46.71000000    32.19000000    95.28000000
   C     45.95000000    32.19000000    92.48000000
   H     45.40000000    36.26000000    94.87000000
   H     44.44000000    33.73000000    96.15000000
   H     46.84000000    34.05000000    94.31000000
   H     44.55000000    33.63000000    93.19000000
   H     44.51000000    32.03000000    93.97000000
   H     45.95000000    31.48000000    95.59000000
   H     47.49000000    31.76000000    94.65000000
   H     47.34000000    32.50000000    96.12000000
   H     46.41000000    31.26000000    92.80000000
   H     45.26000000    32.00000000    91.66000000
   H     46.77000000    32.85000000    92.19000000
   N     45.77000000    34.24000000    98.11000000
   C     46.43000000    34.51000000    99.38000000
   C     47.46000000    33.43000000    99.65000000
   O     47.53000000    32.39000000    99.00000000
   C     45.48000000    34.65000000   100.57000000
   O     44.82000000    33.42000000   100.74000000
   H     45.27000000    33.36000000    98.21000000
   H     46.90000000    35.49000000    99.41000000
   H     44.82000000    35.49000000   100.37000000
   H     46.12000000    34.74000000   101.45000000
   H     43.91000000    33.47000000   100.43000000
   N     48.37000000    33.60000000   100.61000000
   C     49.21000000    32.56000000   101.18000000
   C     48.42000000    31.42000000   101.80000000
   O     48.87000000    30.28000000   101.69000000
   C     50.01000000    33.32000000   102.24000000
   H     48.49000000    34.56000000   100.90000000
   H     49.80000000    32.19000000   100.34000000
   H     50.50000000    34.16000000   101.74000000
   H     49.41000000    33.69000000   103.07000000
   H     50.72000000    32.59000000   102.63000000
   N     47.22000000    31.66000000   102.32000000
   C     46.24000000    30.68000000   102.75000000
   C     45.86000000    29.72000000   101.63000000
   O     45.92000000    28.51000000   101.80000000
   C     45.17000000    31.45000000   103.50000000
   H     46.86000000    32.61000000   102.31000000
   H     46.81000000    30.08000000   103.46000000
   H     45.64000000    32.04000000   104.29000000
   H     44.71000000    32.11000000   102.76000000
   H     44.33000000    30.87000000   103.88000000
   N     45.67000000    30.29000000   100.43000000
   C     45.24000000    29.59000000    99.24000000
   C     46.39000000    28.87000000    98.54000000
   O     46.17000000    27.75000000    98.10000000
   C     44.59000000    30.51000000    98.21000000
   C     43.24000000    31.04000000    98.67000000
   C     42.77000000    32.36000000    98.06000000
   O     42.21000000    32.38000000    96.94000000
   O     42.85000000    33.38000000    98.78000000
   H     45.77000000    31.29000000   100.34000000
   H     44.51000000    28.83000000    99.49000000
   H     44.40000000    30.04000000    97.24000000
   H     45.23000000    31.37000000    98.02000000
   H     43.23000000    31.09000000    99.76000000
   H     42.41000000    30.34000000    98.53000000
   N     47.60000000    29.43000000    98.55000000
   C     48.78000000    28.78000000    98.02000000
   H     49.60900000    28.91000000    98.71500000
   H     48.58100000    27.71600000    97.88800000
   H     49.03900000    29.22400000    97.05900000
   H     47.78000000    30.35000000    98.93000000
  Ca     41.12000000    34.60000000    97.23000000
   O     40.25000000    35.46000000    99.60000000
   H     40.47000000    36.27000000   100.06000000
   H     39.79000000    34.93000000   100.25000000
   O     42.83000000    36.66000000    98.16000000
   H     42.71000000    36.98000000    99.05000000
   H     43.57000000    37.16000000    97.82000000

Ca 1.00



