%chk=loop1.holoCaM-CaMKII.run57.water2.chk
%nprocshared=20
%mem=10GB
%nosave
#b3lyp/svp scf=(tight,noincore,xqc) Test 
#IOP(5/87=12) Density=Current Pop=(MK,readradii) iop(6/33=2) iop(6/42=6)

loop1.holoCaM-CaMKII.run57.water2 

   0  1 
   C      7.81000000    62.07000000    22.59000000
   C      6.88000000    63.18000000    22.12000000
   O      6.09000000    62.92000000    21.21000000
   H      8.72100000    62.50800000    22.99800000
   H      7.31300000    61.48100000    23.36100000
   H      8.06300000    61.42600000    21.74800000
   N      6.93000000    64.36000000    22.73000000
   C      6.10000000    65.50000000    22.40000000
   C      6.61000000    66.20000000    21.14000000
   O      7.10000000    67.33000000    21.21000000
   C      6.03000000    66.42000000    23.61000000
   C      5.03000000    67.53000000    23.33000000
   O      5.06000000    68.56000000    24.04000000
   O      4.26000000    67.51000000    22.34000000
   H      7.52000000    64.50000000    23.53000000
   H      5.06000000    65.25000000    22.20000000
   H      7.04000000    66.77000000    23.84000000
   H      5.65000000    65.86000000    24.47000000
   N      6.37000000    65.60000000    19.98000000
   C      6.80000000    66.07000000    18.68000000
   C      6.11000000    67.31000000    18.14000000
   O      6.28000000    67.62000000    16.97000000
   C      7.05000000    64.83000000    17.81000000
   C      8.32000000    64.12000000    18.25000000
   C      9.69000000    64.76000000    18.03000000
   C     10.81000000    64.22000000    18.91000000
   N     12.12000000    64.82000000    18.61000000
   H      5.85000000    64.73000000    20.00000000
   H      7.79000000    66.53000000    18.73000000
   H      7.20000000    65.16000000    16.78000000
   H      6.20000000    64.15000000    17.79000000
   H      8.38000000    63.07000000    17.97000000
   H      8.30000000    63.92000000    19.32000000
   H      9.60000000    65.84000000    18.19000000
   H      9.96000000    64.72000000    16.98000000
   H     11.01000000    63.15000000    18.86000000
   H     10.42000000    64.38000000    19.91000000
   H     12.65000000    64.31000000    17.92000000
   H     12.00000000    65.78000000    18.30000000
   H     12.73000000    64.97000000    19.40000000
   N      5.26000000    67.98000000    18.93000000
   C      4.66000000    69.23000000    18.52000000
   C      4.58000000    70.25000000    19.65000000
   O      4.17000000    71.39000000    19.44000000
   C      3.35000000    69.02000000    17.76000000
   C      2.28000000    68.41000000    18.65000000
   O      2.31000000    68.43000000    19.90000000
   O      1.25000000    67.97000000    18.09000000
   H      5.08000000    67.62000000    19.86000000
   H      5.23000000    69.59000000    17.67000000
   H      3.54000000    68.33000000    16.94000000
   H      2.97000000    69.98000000    17.39000000
   N      5.04000000    69.94000000    20.86000000
   C      5.58000000    70.88000000    21.83000000
   C      4.54000000    71.43000000    22.79000000
   O      4.85000000    72.28000000    23.63000000
   H      5.14000000    68.96000000    21.08000000
   H      5.83000000    71.81000000    21.31000000
   H      6.42000000    70.41000000    22.34000000
   N      3.28000000    71.03000000    22.67000000
   C      2.15000000    71.45000000    23.47000000
   C      2.23000000    70.96000000    24.91000000
   O      1.25000000    71.25000000    25.59000000
   C      0.81000000    71.08000000    22.82000000
   C      0.71000000    69.57000000    22.64000000
   O      1.21000000    68.78000000    23.46000000
   O      0.13000000    69.10000000    21.64000000
   H      3.10000000    70.31000000    21.98000000
   H      2.12000000    72.54000000    23.51000000
   H      0.77000000    71.57000000    21.85000000
   H     -0.01000000    71.45000000    23.43000000
   N      3.29000000    70.36000000    25.47000000
   C      3.44000000    69.93000000    26.84000000
   C      2.56000000    68.74000000    27.20000000
   O      2.40000000    68.50000000    28.40000000
   H      4.04000000    70.06000000    24.87000000
   H      3.10000000    70.76000000    27.47000000
   H      4.48000000    69.67000000    27.02000000
   N      2.11000000    67.91000000    26.26000000
   C      1.38000000    66.68000000    26.49000000
   C      1.72000000    65.59000000    25.48000000
   O      2.12000000    65.86000000    24.34000000
   C     -0.10000000    67.04000000    26.57000000
   C     -0.53000000    67.79000000    27.84000000
   O     -0.55000000    67.70000000    25.41000000
   H      2.22000000    68.15000000    25.28000000
   H      1.58000000    66.29000000    27.49000000
   H     -0.61000000    66.08000000    26.62000000
   H      0.18000000    68.23000000    25.08000000
   H     -0.29000000    68.85000000    27.74000000
   H     -1.61000000    67.63000000    27.86000000
   H     -0.01000000    67.35000000    28.69000000
   N      1.67000000    64.31000000    25.84000000
   C      1.89000000    63.17000000    24.97000000
   C      0.59000000    62.53000000    24.52000000
   O     -0.12000000    61.92000000    25.31000000
   C      2.94000000    62.25000000    25.60000000
   C      4.36000000    62.79000000    25.78000000
   C      2.93000000    60.90000000    24.89000000
   C      5.29000000    61.98000000    26.68000000
   H      1.50000000    64.16000000    26.82000000
   H      2.33000000    63.50000000    24.03000000
   H      2.64000000    62.05000000    26.62000000
   H      4.31000000    63.84000000    26.05000000
   H      4.88000000    62.76000000    24.82000000
   H      1.95000000    60.45000000    25.04000000
   H      3.10000000    61.03000000    23.83000000
   H      3.66000000    60.19000000    25.27000000
   H      5.09000000    62.26000000    27.71000000
   H      5.26000000    60.91000000    26.48000000
   H      6.31000000    62.29000000    26.44000000
   N      0.36000000    62.51000000    23.20000000
   C     -0.73000000    61.72000000    22.66000000
   C     -0.50000000    60.23000000    22.47000000
   O      0.64000000    59.77000000    22.46000000
   C     -1.42000000    62.32000000    21.44000000
   C     -1.63000000    63.83000000    21.41000000
   O     -0.63000000    62.13000000    20.29000000
   H      0.90000000    63.12000000    22.61000000
   H     -1.54000000    61.65000000    23.39000000
   H     -2.37000000    61.82000000    21.26000000
   H     -1.17000000    62.45000000    19.56000000
   H     -1.71000000    64.16000000    22.44000000
   H     -0.73000000    64.30000000    21.00000000
   H     -2.51000000    64.08000000    20.81000000
   N     -1.54000000    59.40000000    22.35000000
   C     -1.40000000    58.02000000    21.91000000
   C     -0.62000000    57.84000000    20.62000000
   O      0.21000000    56.93000000    20.65000000
   C     -2.71000000    57.29000000    21.64000000
   C     -3.56000000    57.02000000    22.88000000
   O     -3.47000000    58.04000000    20.73000000
   H     -2.44000000    59.84000000    22.47000000
   H     -0.94000000    57.56000000    22.79000000
   H     -2.38000000    56.28000000    21.39000000
   H     -4.19000000    57.46000000    20.49000000
   H     -3.56000000    57.98000000    23.40000000
   H     -4.57000000    56.83000000    22.53000000
   H     -3.09000000    56.29000000    23.54000000
   N     -0.65000000    58.83000000    19.72000000
   C      0.07000000    59.01000000    18.48000000
   C      1.50000000    59.50000000    18.63000000
   O      2.36000000    59.09000000    17.86000000
   C     -0.82000000    59.79000000    17.51000000
   C     -0.33000000    59.81000000    16.06000000
   C     -1.29000000    60.69000000    15.26000000
   C     -1.10000000    60.46000000    13.76000000
   N     -1.74000000    59.23000000    13.27000000
   H     -1.44000000    59.44000000    19.88000000
   H      0.17000000    58.02000000    18.03000000
   H     -0.98000000    60.82000000    17.83000000
   H     -1.84000000    59.42000000    17.39000000
   H     -0.19000000    58.81000000    15.66000000
   H      0.69000000    60.18000000    16.05000000
   H     -1.21000000    61.74000000    15.51000000
   H     -2.29000000    60.43000000    15.59000000
   H     -0.03000000    60.50000000    13.53000000
   H     -1.56000000    61.33000000    13.31000000
   H     -2.60000000    59.10000000    13.79000000
   H     -2.08000000    59.37000000    12.33000000
   H     -1.15000000    58.43000000    13.43000000
   N      1.79000000    60.24000000    19.70000000
   C      3.16000000    60.57000000    20.05000000
   C      3.84000000    59.44000000    20.83000000
   O      5.00000000    59.14000000    20.56000000
   C      3.24000000    61.84000000    20.89000000
   C      3.05000000    62.98000000    19.90000000
   C      2.87000000    64.24000000    20.73000000
   O      3.26000000    65.35000000    20.31000000
   O      2.13000000    64.27000000    21.74000000
   H      1.06000000    60.54000000    20.33000000
   H      3.72000000    60.77000000    19.14000000
   H      4.14000000    61.89000000    21.51000000
   H      2.36000000    61.76000000    21.53000000
   H      2.25000000    62.77000000    19.19000000
   H      3.99000000    63.10000000    19.35000000
   N      3.20000000    58.77000000    21.79000000
   C      3.77000000    57.57000000    22.36000000
   H      4.70400000    57.81700000    22.86600000
   H      3.07100000    57.14100000    23.07800000
   H      3.96700000    56.84800000    21.56700000
   H      2.25000000    59.05000000    22.01000000
  Ca      1.91000000    66.93000000    21.88000000
   O     -0.38800000    66.23000000    23.02000000
   H     -0.26800000    66.48000000    23.93000000
   H     -1.26800000    66.53000000    22.80000000
   O      0.41000000    66.20000000    19.85000000
   H     -0.07000000    65.46000000    19.47000000
   H      0.53000000    66.80000000    19.12000000

Ca 1.00



