%chk=loop3.holoCaM.run2.water2.chk
%nprocshared=20
%mem=10GB
%nosave
#b3lyp/svp scf=(tight,noincore,xqc) Test 
#IOP(5/87=12) Density=Current Pop=(MK,readradii) iop(6/33=2) iop(6/42=6)

loop3.holoCaM.run2.water2 

   0  1 
   C     33.06000000    57.17000000   135.99000000
   C     33.41000000    57.65000000   137.39000000
   O     32.52000000    57.54000000   138.24000000
   H     32.23000000    57.76000000   135.60100000
   H     33.92500000    57.28800000   135.33800000
   H     32.77300000    56.11900000   136.02700000
   N     34.61000000    58.19000000   137.59000000
   C     34.96000000    58.91000000   138.80000000
   C     34.70000000    60.40000000   138.66000000
   O     35.35000000    61.05000000   137.85000000
   C     36.45000000    58.61000000   138.98000000
   C     37.02000000    59.16000000   140.27000000
   O     36.41000000    59.75000000   141.19000000
   O     38.22000000    58.84000000   140.45000000
   H     35.30000000    58.05000000   136.86000000
   H     34.47000000    58.53000000   139.69000000
   H     37.04000000    59.04000000   138.17000000
   H     36.54000000    57.52000000   138.96000000
   N     33.85000000    60.87000000   139.58000000
   C     33.19000000    62.16000000   139.50000000
   C     34.02000000    63.24000000   140.18000000
   O     33.98000000    64.38000000   139.73000000
   C     31.84000000    62.08000000   140.19000000
   C     30.84000000    63.17000000   139.78000000
   C     29.49000000    63.06000000   140.49000000
   C     28.46000000    64.13000000   140.15000000
   N     27.27000000    63.86000000   140.97000000
   H     33.42000000    60.23000000   140.23000000
   H     33.14000000    62.46000000   138.45000000
   H     31.89000000    62.07000000   141.28000000
   H     31.34000000    61.21000000   139.77000000
   H     30.69000000    63.09000000   138.71000000
   H     31.16000000    64.15000000   140.12000000
   H     29.74000000    63.00000000   141.55000000
   H     28.96000000    62.16000000   140.21000000
   H     28.21000000    64.15000000   139.09000000
   H     28.88000000    65.05000000   140.56000000
   H     26.99000000    62.89000000   141.01000000
   H     27.48000000    64.14000000   141.92000000
   H     26.55000000    64.52000000   140.73000000
   N     34.83000000    62.90000000   141.18000000
   C     35.86000000    63.70000000   141.83000000
   C     37.34000000    63.55000000   141.51000000
   O     38.22000000    64.24000000   142.01000000
   C     35.67000000    63.61000000   143.34000000
   C     35.66000000    62.13000000   143.68000000
   O     34.59000000    61.48000000   143.63000000
   O     36.69000000    61.47000000   143.91000000
   H     34.83000000    61.91000000   141.38000000
   H     35.59000000    64.74000000   141.60000000
   H     34.69000000    64.06000000   143.50000000
   H     36.50000000    64.09000000   143.85000000
   N     37.60000000    62.53000000   140.69000000
   C     38.94000000    62.29000000   140.19000000
   C     40.04000000    61.92000000   141.18000000
   O     41.23000000    62.13000000   140.92000000
   H     36.84000000    61.89000000   140.48000000
   H     39.21000000    63.23000000   139.73000000
   H     38.89000000    61.50000000   139.44000000
   N     39.63000000    61.31000000   142.29000000
   C     40.59000000    60.74000000   143.20000000
   C     41.29000000    59.45000000   142.78000000
   O     42.32000000    59.21000000   143.40000000
   C     39.87000000    60.70000000   144.55000000
   C     39.18000000    59.39000000   144.89000000
   N     39.51000000    58.74000000   146.01000000
   O     38.42000000    58.83000000   144.09000000
   H     38.67000000    61.17000000   142.56000000
   H     41.39000000    61.47000000   143.32000000
   H     39.13000000    61.48000000   144.70000000
   H     40.64000000    60.88000000   145.29000000
   H     40.16000000    59.18000000   146.65000000
   H     39.04000000    57.86000000   146.16000000
   N     40.79000000    58.68000000   141.81000000
   C     41.35000000    57.38000000   141.49000000
   C     40.45000000    56.21000000   141.86000000
   O     40.81000000    55.07000000   141.56000000
   H     39.89000000    58.89000000   141.41000000
   H     42.38000000    57.25000000   141.79000000
   H     41.41000000    57.42000000   140.40000000
   N     39.27000000    56.47000000   142.41000000
   C     38.35000000    55.41000000   142.79000000
   C     36.89000000    55.66000000   142.45000000
   O     36.50000000    56.82000000   142.49000000
   C     38.45000000    55.23000000   144.30000000
   C     39.79000000    54.88000000   144.90000000
   C     40.75000000    55.90000000   144.89000000
   C     40.12000000    53.57000000   145.27000000
   C     42.04000000    55.57000000   145.33000000
   C     41.42000000    53.32000000   145.73000000
   C     42.38000000    54.33000000   145.90000000
   O     43.68000000    54.14000000   146.28000000
   H     39.06000000    57.39000000   142.77000000
   H     38.66000000    54.49000000   142.30000000
   H     37.68000000    54.54000000   144.64000000
   H     38.11000000    56.18000000   144.73000000
   H     40.56000000    56.93000000   144.64000000
   H     39.38000000    52.79000000   145.29000000
   H     42.79000000    56.34000000   145.21000000
   H     41.72000000    52.29000000   145.91000000
   H     43.78000000    53.21000000   146.49000000
   N     35.98000000    54.75000000   142.09000000
   C     34.55000000    54.92000000   141.92000000
   C     33.64000000    54.37000000   143.01000000
   O     33.78000000    53.19000000   143.33000000
   C     34.19000000    54.38000000   140.54000000
   C     35.13000000    54.88000000   139.45000000
   C     32.79000000    54.82000000   140.11000000
   C     35.10000000    53.90000000   138.28000000
   H     36.22000000    53.77000000   141.98000000
   H     34.38000000    55.98000000   141.73000000
   H     34.35000000    53.30000000   140.60000000
   H     36.18000000    55.09000000   139.63000000
   H     34.68000000    55.79000000   139.04000000
   H     32.39000000    54.44000000   139.17000000
   H     31.99000000    54.44000000   140.74000000
   H     32.86000000    55.90000000   140.04000000
   H     35.67000000    53.00000000   138.47000000
   H     34.08000000    53.59000000   138.03000000
   H     35.50000000    54.48000000   137.45000000
   N     32.80000000    55.21000000   143.61000000
   C     31.76000000    54.79000000   144.52000000
   C     30.45000000    54.51000000   143.80000000
   O     30.23000000    54.95000000   142.67000000
   C     31.59000000    55.78000000   145.67000000
   O     30.97000000    56.98000000   145.27000000
   H     32.89000000    56.20000000   143.42000000
   H     32.00000000    53.87000000   145.06000000
   H     32.60000000    55.82000000   146.09000000
   H     31.06000000    55.36000000   146.53000000
   H     31.60000000    57.59000000   144.88000000
   N     29.53000000    53.79000000   144.45000000
   C     28.30000000    53.41000000   143.79000000
   C     27.40000000    54.54000000   143.29000000
   O     26.84000000    54.44000000   142.20000000
   C     27.61000000    52.49000000   144.79000000
   H     29.73000000    53.47000000   145.38000000
   H     28.51000000    52.76000000   142.94000000
   H     26.73000000    52.04000000   144.34000000
   H     28.35000000    51.78000000   145.16000000
   H     27.15000000    53.04000000   145.62000000
   N     27.40000000    55.67000000   144.00000000
   C     26.77000000    56.93000000   143.67000000
   C     27.56000000    57.68000000   142.61000000
   O     27.08000000    58.73000000   142.18000000
   C     26.49000000    57.78000000   144.91000000
   H     27.87000000    55.64000000   144.90000000
   H     25.77000000    56.71000000   143.31000000
   H     26.25000000    57.27000000   145.84000000
   H     27.43000000    58.28000000   145.10000000
   H     25.69000000    58.50000000   144.72000000
   N     28.72000000    57.26000000   142.09000000
   C     29.43000000    57.76000000   140.93000000
   C     29.10000000    56.91000000   139.72000000
   O     28.99000000    57.47000000   138.63000000
   C     30.91000000    57.93000000   141.26000000
   C     31.28000000    58.87000000   142.41000000
   C     32.73000000    58.74000000   142.86000000
   O     33.68000000    59.02000000   142.10000000
   O     32.95000000    58.20000000   143.97000000
   H     29.09000000    56.41000000   142.49000000
   H     29.09000000    58.76000000   140.63000000
   H     31.43000000    58.26000000   140.36000000
   H     31.28000000    56.95000000   141.57000000
   H     30.57000000    58.74000000   143.22000000
   H     31.13000000    59.90000000   142.09000000
   N     29.01000000    55.58000000   139.84000000
   C     28.50000000    54.76000000   138.76000000
   H     27.60000000    55.21900000   138.35000000
   H     29.25400000    54.67800000   137.97800000
   H     28.26000000    53.76700000   139.13900000
   H     29.03000000    55.18000000   140.76000000
  Ca     35.66000000    58.98000000   143.60500000
   O     35.54000000    56.81000000   145.47500000
   H     35.83000000    55.93000000   145.68500000
   H     35.04000000    57.10000000   146.24500000
   O     35.59000000    59.82000000   146.32500000
   H     36.33000000    60.32000000   146.66500000
   H     35.33000000    59.25000000   147.05500000

Ca 1.00



