%chk=loop4.apoCaM-CA-Ng.Init295.run92.water2.chk
%nprocshared=20
%mem=10GB
%nosave
#b3lyp/svp scf=(tight,noincore,xqc) Test 
#IOP(5/87=12) Density=Current Pop=(MK,readradii) iop(6/33=2) iop(6/42=6)

loop4.apoCaM-CA-Ng.Init295.run92.water2 

   -3  1 
   C    108.53000000    59.58000000    68.98000000
   C    107.06000000    59.25000000    68.81000000
   O    106.18000000    60.10000000    68.82000000
   H    109.08400000    59.23000000    68.10900000
   H    108.65200000    60.65900000    69.07800000
   H    108.91200000    59.08800000    69.87500000
   N    106.72000000    57.98000000    68.59000000
   C    105.36000000    57.48000000    68.55000000
   C    104.42000000    57.97000000    67.46000000
   O    103.19000000    58.00000000    67.52000000
   C    104.74000000    57.44000000    69.95000000
   C    105.58000000    56.91000000    71.10000000
   O    106.36000000    55.96000000    70.88000000
   O    105.86000000    57.68000000    72.05000000
   H    107.48000000    57.32000000    68.47000000
   H    105.65000000    56.45000000    68.34000000
   H    103.89000000    56.76000000    69.93000000
   H    104.42000000    58.46000000    70.18000000
   N    105.07000000    58.19000000    66.32000000
   C    104.44000000    58.57000000    65.07000000
   C    104.36000000    57.34000000    64.17000000
   O    105.34000000    56.64000000    63.92000000
   C    105.16000000    59.72000000    64.36000000
   C    105.18000000    60.99000000    65.20000000
   C    104.69000000    60.04000000    62.95000000
   C    103.90000000    61.81000000    65.11000000
   H    106.08000000    58.24000000    66.37000000
   H    103.48000000    59.03000000    65.32000000
   H    106.16000000    59.36000000    64.15000000
   H    106.01000000    61.58000000    64.81000000
   H    105.34000000    60.83000000    66.27000000
   H    103.61000000    60.21000000    62.97000000
   H    105.05000000    60.97000000    62.50000000
   H    104.98000000    59.21000000    62.31000000
   H    103.73000000    62.30000000    64.15000000
   H    103.04000000    61.16000000    65.27000000
   H    103.90000000    62.61000000    65.86000000
   N    103.22000000    57.05000000    63.54000000
   C    101.88000000    57.58000000    63.67000000
   C    101.10000000    57.24000000    64.94000000
   O    100.20000000    58.03000000    65.24000000
   C    101.19000000    57.03000000    62.42000000
   C     99.70000000    57.34000000    62.40000000
   O     98.84000000    56.47000000    62.64000000
   O     99.37000000    58.50000000    62.07000000
   H    103.37000000    56.37000000    62.82000000
   H    101.93000000    58.66000000    63.67000000
   H    101.31000000    55.95000000    62.39000000
   H    101.65000000    57.61000000    61.62000000
   N    101.49000000    56.22000000    65.69000000
   C    100.89000000    55.95000000    66.98000000
   C     99.39000000    55.67000000    67.03000000
   O     98.72000000    55.53000000    66.01000000
   H    102.27000000    55.62000000    65.45000000
   H    100.95000000    56.88000000    67.54000000
   H    101.48000000    55.21000000    67.53000000
   N     98.87000000    55.62000000    68.26000000
   C     97.45000000    55.67000000    68.54000000
   C     97.06000000    57.01000000    69.13000000
   O     95.90000000    57.27000000    69.43000000
   C     97.07000000    54.49000000    69.43000000
   C     97.65000000    54.53000000    70.84000000
   O     97.15000000    53.77000000    71.69000000
   O     98.55000000    55.36000000    71.11000000
   H     99.47000000    55.70000000    69.06000000
   H     96.83000000    55.54000000    67.65000000
   H     97.60000000    53.66000000    68.95000000
   H     96.01000000    54.26000000    69.32000000
   N     98.01000000    57.92000000    69.39000000
   C     97.77000000    59.19000000    70.05000000
   C     97.29000000    59.20000000    71.49000000
   O     96.81000000    60.23000000    71.96000000
   H     98.97000000    57.67000000    69.23000000
   H     96.97000000    59.74000000    69.55000000
   H     98.62000000    59.87000000    69.97000000
   N     97.20000000    58.03000000    72.13000000
   C     96.63000000    57.71000000    73.42000000
   C     96.97000000    58.78000000    74.44000000
   O     96.09000000    59.47000000    74.96000000
   C     95.16000000    57.36000000    73.21000000
   C     94.31000000    58.28000000    72.34000000
   C     92.82000000    58.06000000    72.58000000
   N     92.29000000    58.66000000    73.65000000
   O     92.20000000    57.35000000    71.80000000
   H     97.74000000    57.26000000    71.76000000
   H     97.10000000    56.81000000    73.82000000
   H     94.68000000    57.12000000    74.16000000
   H     95.07000000    56.40000000    72.71000000
   H     94.50000000    58.09000000    71.28000000
   H     94.52000000    59.33000000    72.54000000
   H     92.76000000    59.32000000    74.25000000
   H     91.30000000    58.51000000    73.78000000
   N     98.27000000    59.01000000    74.64000000
   C     98.90000000    59.83000000    75.66000000
   C    100.04000000    59.18000000    76.42000000
   O    100.51000000    58.08000000    76.12000000
   C     99.41000000    61.12000000    75.01000000
   C    100.12000000    60.92000000    73.68000000
   C     98.24000000    62.10000000    74.95000000
   H     98.81000000    58.28000000    74.20000000
   H     98.15000000    60.04000000    76.42000000
   H    100.17000000    61.59000000    75.63000000
   H    100.75000000    60.03000000    73.59000000
   H     99.37000000    60.83000000    72.89000000
   H    100.79000000    61.73000000    73.40000000
   H     97.44000000    61.94000000    74.22000000
   H     97.78000000    62.17000000    75.93000000
   H     98.71000000    63.07000000    74.80000000
   N    100.38000000    59.80000000    77.55000000
   C    101.46000000    59.42000000    78.43000000
   C    102.30000000    60.67000000    78.67000000
   O    101.94000000    61.83000000    78.47000000
   C    100.90000000    58.63000000    79.61000000
   C    100.38000000    57.28000000    79.15000000
   N     99.05000000    57.16000000    79.08000000
   O    101.08000000    56.40000000    78.65000000
   H     99.92000000    60.68000000    77.75000000
   H    102.11000000    58.68000000    77.97000000
   H    100.08000000    59.25000000    79.98000000
   H    101.56000000    58.52000000    80.48000000
   H     98.55000000    57.81000000    79.67000000
   H     98.59000000    56.34000000    78.71000000
   N    103.56000000    60.44000000    79.04000000
   C    104.60000000    61.40000000    79.38000000
   C    105.94000000    60.69000000    79.37000000
   O    106.70000000    60.77000000    80.34000000
   C    104.29000000    61.96000000    80.77000000
   C    104.84000000    63.31000000    81.15000000
   C    104.71000000    64.42000000    80.29000000
   C    105.51000000    63.47000000    82.37000000
   C    105.30000000    65.62000000    80.69000000
   C    105.98000000    64.71000000    82.82000000
   C    105.88000000    65.82000000    81.96000000
   O    106.48000000    66.98000000    82.36000000
   H    103.82000000    59.48000000    79.20000000
   H    104.66000000    62.21000000    78.65000000
   H    104.46000000    61.16000000    81.49000000
   H    103.20000000    62.05000000    80.79000000
   H    104.32000000    64.30000000    79.29000000
   H    105.55000000    62.59000000    82.99000000
   H    105.24000000    66.46000000    80.02000000
   H    106.53000000    64.76000000    83.75000000
   H    107.07000000    66.80000000    83.10000000
   N    106.19000000    59.96000000    78.28000000
   C    107.22000000    58.94000000    78.23000000
   C    108.63000000    59.51000000    78.09000000
   O    109.46000000    59.12000000    78.90000000
   C    106.86000000    57.82000000    77.27000000
   C    107.86000000    56.68000000    77.13000000
   C    108.01000000    56.25000000    75.68000000
   O    106.97000000    56.05000000    75.02000000
   O    109.11000000    55.96000000    75.16000000
   H    105.49000000    59.92000000    77.55000000
   H    107.21000000    58.52000000    79.24000000
   H    106.73000000    58.34000000    76.31000000
   H    105.86000000    57.45000000    77.51000000
   H    107.57000000    55.76000000    77.65000000
   H    108.86000000    56.94000000    77.45000000
   N    109.01000000    60.38000000    77.15000000
   C    108.45000000    60.84000000    75.89000000
   C    107.59000000    62.07000000    76.13000000
   O    107.75000000    62.76000000    77.13000000
   C    109.56000000    61.05000000    74.86000000
   C    110.49000000    59.87000000    74.60000000
   C    109.88000000    58.79000000    73.72000000
   O    108.71000000    58.85000000    73.29000000
   O    110.54000000    57.81000000    73.30000000
   H    109.92000000    60.79000000    77.32000000
   H    107.78000000    60.11000000    75.44000000
   H    110.18000000    61.92000000    75.09000000
   H    109.04000000    61.33000000    73.95000000
   H    110.80000000    59.39000000    75.53000000
   H    111.36000000    60.25000000    74.06000000
   N    106.82000000    62.41000000    75.09000000
   C    105.84000000    63.47000000    75.00000000
   H    104.94300000    63.18200000    75.54800000
   H    106.25100000    64.38300000    75.43100000
   H    105.58700000    63.64300000    73.95400000
   H    106.90000000    61.87000000    74.24000000
  Ca    108.16800000    56.46000000    72.70000000
   O    107.02800000    54.03000000    72.86000000
   H    106.78800000    53.25000000    72.36000000
   H    106.43800000    54.02000000    73.62000000
   O    110.28800000    54.55000000    72.34000000
   H    111.02800000    54.92000000    71.85000000
   H    110.70800000    53.99000000    73.00000000

Ca 1.00



