%chk=loop4.apoCaM-CA-Ng.Init293.run57.water3.chk
%nprocshared=20
%mem=10GB
%nosave
#b3lyp/svp scf=(tight,noincore,xqc) Test 
#IOP(5/87=12) Density=Current Pop=(MK,readradii) iop(6/33=2) iop(6/42=6)

loop4.apoCaM-CA-Ng.Init293.run57.water3 

   -3  1 
   C     47.57000000    60.93000000    70.17000000
   C     46.37000000    60.06000000    69.80000000
   O     45.44000000    59.76000000    70.54000000
   H     48.39200000    60.72500000    69.48400000
   H     47.29200000    61.98200000    70.10000000
   H     47.88300000    60.70300000    71.18900000
   N     46.25000000    59.72000000    68.52000000
   C     45.32000000    58.96000000    67.70000000
   C     43.88000000    59.43000000    67.55000000
   O     43.13000000    58.90000000    66.73000000
   C     45.47000000    57.45000000    67.87000000
   C     45.02000000    56.94000000    69.24000000
   O     44.01000000    57.36000000    69.85000000
   O     45.72000000    56.09000000    69.82000000
   H     46.90000000    60.17000000    67.89000000
   H     45.73000000    59.19000000    66.71000000
   H     46.53000000    57.28000000    67.72000000
   H     44.97000000    56.79000000    67.16000000
   N     43.50000000    60.34000000    68.45000000
   C     42.13000000    60.79000000    68.61000000
   C     41.37000000    60.07000000    69.72000000
   O     41.99000000    59.78000000    70.74000000
   C     42.10000000    62.27000000    68.97000000
   C     42.86000000    63.11000000    67.94000000
   C     42.69000000    62.54000000    70.35000000
   C     42.22000000    63.22000000    66.56000000
   H     44.18000000    60.65000000    69.13000000
   H     41.65000000    60.65000000    67.65000000
   H     41.04000000    62.50000000    68.99000000
   H     43.89000000    62.81000000    67.75000000
   H     42.96000000    64.14000000    68.27000000
   H     41.94000000    62.33000000    71.11000000
   H     43.65000000    62.03000000    70.48000000
   H     42.83000000    63.61000000    70.50000000
   H     42.81000000    63.99000000    66.05000000
   H     42.31000000    62.28000000    66.02000000
   H     41.19000000    63.52000000    66.73000000
   N     40.10000000    59.71000000    69.52000000
   C     39.34000000    58.78000000    70.34000000
   C     40.01000000    57.42000000    70.20000000
   O     40.62000000    57.13000000    69.17000000
   C     37.88000000    58.70000000    69.92000000
   C     37.57000000    58.52000000    68.44000000
   O     37.45000000    59.56000000    67.76000000
   O     37.47000000    57.36000000    67.98000000
   H     39.66000000    60.16000000    68.73000000
   H     39.36000000    58.96000000    71.42000000
   H     37.36000000    59.62000000    70.22000000
   H     37.38000000    57.88000000    70.45000000
   N     39.82000000    56.43000000    71.08000000
   C     39.21000000    56.54000000    72.39000000
   C     40.00000000    57.45000000    73.33000000
   O     41.14000000    57.76000000    73.00000000
   H     40.27000000    55.56000000    70.87000000
   H     39.16000000    55.50000000    72.69000000
   H     38.19000000    56.91000000    72.30000000
   N     39.45000000    57.92000000    74.45000000
   C     38.24000000    57.43000000    75.07000000
   C     36.96000000    57.67000000    74.29000000
   O     36.19000000    56.72000000    74.13000000
   C     38.13000000    57.74000000    76.56000000
   C     36.86000000    57.08000000    77.08000000
   O     36.74000000    55.84000000    77.03000000
   O     36.05000000    57.81000000    77.69000000
   H     39.93000000    58.71000000    74.87000000
   H     38.42000000    56.36000000    74.99000000
   H     38.01000000    58.80000000    76.80000000
   H     38.96000000    57.36000000    77.15000000
   N     36.62000000    58.89000000    73.88000000
   C     37.34000000    60.14000000    73.97000000
   C     36.43000000    61.29000000    73.56000000
   O     35.35000000    61.03000000    73.03000000
   H     35.66000000    58.97000000    73.56000000
   H     38.11000000    60.14000000    73.20000000
   H     37.80000000    60.32000000    74.94000000
   N     36.85000000    62.54000000    73.75000000
   C     36.08000000    63.73000000    73.46000000
   C     36.86000000    64.91000000    72.90000000
   O     36.28000000    65.98000000    72.72000000
   C     35.12000000    64.04000000    74.61000000
   C     35.64000000    64.12000000    76.05000000
   C     36.29000000    65.44000000    76.43000000
   N     37.51000000    65.63000000    75.92000000
   O     35.69000000    66.30000000    77.08000000
   H     37.81000000    62.68000000    74.02000000
   H     35.51000000    63.44000000    72.58000000
   H     34.38000000    63.23000000    74.61000000
   H     34.53000000    64.89000000    74.28000000
   H     36.26000000    63.24000000    76.18000000
   H     34.72000000    64.00000000    76.62000000
   H     38.03000000    64.80000000    75.69000000
   H     38.00000000    66.47000000    76.19000000
   N     38.18000000    64.78000000    72.72000000
   C     39.20000000    65.79000000    72.52000000
   C     40.47000000    65.54000000    73.33000000
   O     40.94000000    64.42000000    73.52000000
   C     39.51000000    65.89000000    71.03000000
   C     40.54000000    66.99000000    70.83000000
   C     38.27000000    66.27000000    70.22000000
   H     38.62000000    63.89000000    72.90000000
   H     38.81000000    66.76000000    72.81000000
   H     39.90000000    64.97000000    70.59000000
   H     40.12000000    67.99000000    70.95000000
   H     41.52000000    66.93000000    71.32000000
   H     40.75000000    67.10000000    69.77000000
   H     38.62000000    66.63000000    69.25000000
   H     37.71000000    65.34000000    70.10000000
   H     37.70000000    67.01000000    70.78000000
   N     41.00000000    66.65000000    73.82000000
   C     42.24000000    66.80000000    74.56000000
   C     42.43000000    66.11000000    75.91000000
   O     43.54000000    66.01000000    76.42000000
   C     42.42000000    68.29000000    74.81000000
   C     43.81000000    68.69000000    75.29000000
   N     43.94000000    69.27000000    76.48000000
   O     44.85000000    68.28000000    74.80000000
   H     40.46000000    67.49000000    73.63000000
   H     42.99000000    66.46000000    73.84000000
   H     41.61000000    68.55000000    75.50000000
   H     42.23000000    68.88000000    73.91000000
   H     43.19000000    69.73000000    76.97000000
   H     44.84000000    69.41000000    76.91000000
   N     41.33000000    65.66000000    76.51000000
   C     41.26000000    65.21000000    77.89000000
   C     41.71000000    63.77000000    78.05000000
   O     41.35000000    62.87000000    77.29000000
   C     39.93000000    65.61000000    78.51000000
   C     39.87000000    65.19000000    79.96000000
   C     40.23000000    66.10000000    80.96000000
   C     39.34000000    63.99000000    80.44000000
   C     40.15000000    65.83000000    82.33000000
   C     39.28000000    63.62000000    81.79000000
   C     39.71000000    64.56000000    82.75000000
   O     39.62000000    64.24000000    84.07000000
   H     40.44000000    65.90000000    76.09000000
   H     41.98000000    65.77000000    78.48000000
   H     39.14000000    65.08000000    77.98000000
   H     39.79000000    66.69000000    78.52000000
   H     40.64000000    67.07000000    80.70000000
   H     38.86000000    63.34000000    79.72000000
   H     40.66000000    66.50000000    83.01000000
   H     38.96000000    62.60000000    81.97000000
   H     40.08000000    64.91000000    84.58000000
   N     42.61000000    63.53000000    79.01000000
   C     43.59000000    62.47000000    79.18000000
   C     44.48000000    62.19000000    77.98000000
   O     45.48000000    61.48000000    78.15000000
   C     42.86000000    61.22000000    79.66000000
   C     42.37000000    61.33000000    81.11000000
   C     41.98000000    59.96000000    81.65000000
   O     40.98000000    59.36000000    81.19000000
   O     42.42000000    59.50000000    82.73000000
   H     42.63000000    64.26000000    79.71000000
   H     44.39000000    62.76000000    79.85000000
   H     43.57000000    60.39000000    79.61000000
   H     42.07000000    60.92000000    78.98000000
   H     41.46000000    61.92000000    81.21000000
   H     43.03000000    61.81000000    81.83000000
   N     44.32000000    62.82000000    76.82000000
   C     45.25000000    62.93000000    75.72000000
   C     46.49000000    63.72000000    76.10000000
   O     47.55000000    63.64000000    75.48000000
   C     44.71000000    63.44000000    74.38000000
   C     43.40000000    62.72000000    74.07000000
   C     43.48000000    61.23000000    73.76000000
   O     42.45000000    60.59000000    73.48000000
   O     44.52000000    60.55000000    73.91000000
   H     43.65000000    63.58000000    76.80000000
   H     45.56000000    61.91000000    75.50000000
   H     45.34000000    63.09000000    73.56000000
   H     44.56000000    64.52000000    74.36000000
   H     43.08000000    63.16000000    73.13000000
   H     42.64000000    63.02000000    74.79000000
   N     46.22000000    64.67000000    77.00000000
   C     47.27000000    65.43000000    77.64000000
   H     48.12000000    65.51600000    76.96300000
   H     46.90100000    66.42600000    77.88600000
   H     47.58200000    64.92200000    78.55200000
   H     45.28000000    64.86000000    77.32000000
  Ca     43.65000000    58.53000000    72.09000000
   O     43.42000000    55.89000000    72.33000000
   H     42.60000000    55.44000000    72.54000000
   H     44.00000000    55.19000000    72.01000000
   O     43.37000000    57.66000000    74.77000000
   H     43.10000000    58.00000000    75.62000000
   H     43.11000000    56.74000000    74.78000000
   O     46.11000000    57.57000000    72.77000000
   H     46.90000000    57.97000000    72.40000000
   H     46.44000000    56.84000000    73.29000000

Ca 1.00



