%chk=loop1.apoCaM-CA-Ng.Init295.run60.water4.chk
%nprocshared=20
%mem=10GB
%nosave
#b3lyp/svp scf=(tight,noincore,xqc) Test 
#IOP(5/87=12) Density=Current Pop=(MK,readradii) iop(6/33=2) iop(6/42=6)

loop1.apoCaM-CA-Ng.Init295.run60.water4 

   0  1 
   C     63.64000000    75.42000000    51.18000000
   C     62.82000000    76.68000000    50.93000000
   O     61.60000000    76.57000000    50.92000000
   H     64.57700000    75.68800000    51.66800000
   H     63.07800000    74.74100000    51.82100000
   H     63.85300000    74.93000000    50.23000000
   N     63.42000000    77.87000000    50.78000000
   C     62.74000000    79.13000000    50.59000000
   C     63.33000000    79.95000000    49.45000000
   O     64.42000000    79.66000000    48.96000000
   C     62.83000000    79.87000000    51.92000000
   C     61.75000000    80.91000000    52.17000000
   O     61.20000000    81.53000000    51.24000000
   O     61.47000000    81.13000000    53.37000000
   H     64.42000000    77.93000000    50.70000000
   H     61.70000000    78.89000000    50.37000000
   H     63.79000000    80.39000000    51.97000000
   H     62.88000000    79.14000000    52.73000000
   N     62.71000000    81.07000000    49.06000000
   C     63.21000000    82.05000000    48.12000000
   C     64.08000000    83.14000000    48.73000000
   O     64.59000000    83.93000000    47.95000000
   C     61.96000000    82.65000000    47.48000000
   C     61.15000000    81.56000000    46.79000000
   C     59.89000000    82.03000000    46.07000000
   C     58.98000000    80.81000000    45.87000000
   N     57.72000000    81.44000000    45.45000000
   H     61.96000000    81.42000000    49.63000000
   H     63.86000000    81.52000000    47.43000000
   H     62.26000000    83.30000000    46.66000000
   H     61.36000000    83.29000000    48.14000000
   H     60.77000000    80.82000000    47.50000000
   H     61.81000000    81.07000000    46.08000000
   H     60.18000000    82.35000000    45.07000000
   H     59.42000000    82.87000000    46.59000000
   H     58.94000000    80.25000000    46.80000000
   H     59.40000000    80.18000000    45.09000000
   H     57.36000000    81.98000000    46.23000000
   H     57.70000000    81.93000000    44.57000000
   H     57.06000000    80.70000000    45.27000000
   N     64.15000000    83.34000000    50.05000000
   C     65.07000000    84.28000000    50.66000000
   C     65.57000000    83.80000000    52.02000000
   O     64.85000000    83.06000000    52.68000000
   C     64.30000000    85.59000000    50.74000000
   C     65.20000000    86.81000000    50.83000000
   O     64.61000000    87.91000000    50.89000000
   O     66.42000000    86.73000000    51.06000000
   H     63.71000000    82.78000000    50.77000000
   H     65.88000000    84.46000000    49.96000000
   H     63.57000000    85.64000000    51.56000000
   H     63.61000000    85.68000000    49.90000000
   N     66.71000000    84.35000000    52.44000000
   C     67.58000000    83.78000000    53.45000000
   C     68.93000000    84.46000000    53.67000000
   O     69.97000000    83.86000000    53.41000000
   H     67.09000000    85.06000000    51.83000000
   H     67.79000000    82.77000000    53.11000000
   H     67.17000000    83.72000000    54.46000000
   N     68.97000000    85.74000000    54.02000000
   C     70.19000000    86.45000000    54.33000000
   C     70.84000000    86.09000000    55.65000000
   O     70.21000000    85.95000000    56.70000000
   C     69.97000000    87.96000000    54.22000000
   C     68.94000000    88.42000000    53.20000000
   O     67.99000000    89.13000000    53.61000000
   O     68.97000000    88.23000000    51.97000000
   H     68.10000000    86.24000000    54.17000000
   H     70.82000000    86.21000000    53.47000000
   H     70.89000000    88.52000000    54.07000000
   H     69.67000000    88.23000000    55.23000000
   N     72.18000000    86.11000000    55.67000000
   C     72.98000000    86.01000000    56.87000000
   C     73.15000000    84.66000000    57.55000000
   O     72.47000000    83.70000000    57.18000000
   H     72.66000000    86.27000000    54.79000000
   H     72.50000000    86.64000000    57.62000000
   H     73.96000000    86.30000000    56.50000000
   N     74.07000000    84.63000000    58.52000000
   C     74.32000000    83.55000000    59.45000000
   C     75.73000000    83.00000000    59.32000000
   O     76.69000000    83.75000000    59.18000000
   C     74.14000000    84.02000000    60.89000000
   C     72.84000000    84.80000000    61.07000000
   O     74.12000000    82.95000000    61.81000000
   H     74.60000000    85.48000000    58.65000000
   H     73.66000000    82.71000000    59.27000000
   H     75.05000000    84.56000000    61.13000000
   H     74.56000000    83.19000000    62.62000000
   H     72.01000000    84.10000000    60.98000000
   H     72.76000000    85.26000000    62.05000000
   H     72.65000000    85.56000000    60.31000000
   N     75.91000000    81.69000000    59.54000000
   C     77.19000000    81.01000000    59.45000000
   C     77.82000000    80.96000000    58.07000000
   O     79.01000000    80.69000000    58.02000000
   C     77.05000000    79.72000000    60.26000000
   C     76.15000000    78.70000000    59.56000000
   C     76.77000000    80.03000000    61.73000000
   C     76.01000000    77.47000000    60.45000000
   H     75.07000000    81.16000000    59.67000000
   H     77.94000000    81.60000000    59.98000000
   H     78.03000000    79.25000000    60.30000000
   H     76.60000000    78.39000000    58.62000000
   H     75.12000000    79.03000000    59.43000000
   H     75.71000000    80.18000000    61.94000000
   H     77.07000000    79.14000000    62.28000000
   H     77.29000000    80.94000000    62.01000000
   H     75.71000000    76.58000000    59.89000000
   H     76.93000000    77.16000000    60.94000000
   H     75.27000000    77.61000000    61.24000000
   N     77.08000000    81.29000000    57.00000000
   C     77.56000000    81.51000000    55.65000000
   C     78.19000000    80.23000000    55.13000000
   O     77.43000000    79.34000000    54.75000000
   C     76.42000000    82.01000000    54.76000000
   C     75.94000000    83.42000000    55.11000000
   O     76.92000000    82.09000000    53.45000000
   H     76.09000000    81.17000000    57.15000000
   H     78.31000000    82.29000000    55.70000000
   H     75.54000000    81.39000000    54.90000000
   H     76.33000000    82.60000000    52.89000000
   H     75.35000000    83.39000000    56.03000000
   H     76.82000000    84.06000000    55.06000000
   H     75.30000000    83.80000000    54.31000000
   N     79.52000000    80.13000000    55.12000000
   C     80.24000000    79.12000000    54.37000000
   C     80.10000000    77.77000000    55.07000000
   O     80.17000000    76.68000000    54.50000000
   C     81.68000000    79.58000000    54.21000000
   C     82.63000000    78.47000000    53.77000000
   O     82.21000000    79.95000000    55.46000000
   H     80.12000000    80.86000000    55.49000000
   H     79.88000000    79.18000000    53.34000000
   H     81.68000000    80.38000000    53.46000000
   H     81.75000000    80.75000000    55.74000000
   H     83.62000000    78.90000000    53.58000000
   H     82.68000000    77.61000000    54.43000000
   H     82.22000000    78.09000000    52.83000000
   N     79.80000000    77.83000000    56.37000000
   C     79.76000000    76.70000000    57.27000000
   C     78.53000000    75.86000000    56.96000000
   O     77.46000000    76.35000000    56.60000000
   C     79.82000000    77.21000000    58.71000000
   C     80.04000000    76.21000000    59.84000000
   C     80.35000000    76.94000000    61.14000000
   C     80.55000000    75.99000000    62.32000000
   N     81.65000000    75.03000000    62.15000000
   H     79.74000000    78.75000000    56.78000000
   H     80.61000000    76.06000000    57.05000000
   H     78.89000000    77.77000000    58.76000000
   H     80.55000000    78.01000000    58.82000000
   H     80.82000000    75.48000000    59.65000000
   H     79.10000000    75.68000000    60.01000000
   H     79.47000000    77.55000000    61.35000000
   H     81.23000000    77.56000000    61.00000000
   H     79.66000000    75.41000000    62.57000000
   H     80.94000000    76.61000000    63.13000000
   H     82.44000000    75.48000000    61.72000000
   H     82.00000000    74.70000000    63.04000000
   H     81.50000000    74.24000000    61.54000000
   N     78.78000000    74.55000000    57.11000000
   C     77.77000000    73.54000000    56.86000000
   C     78.28000000    72.52000000    55.86000000
   O     79.50000000    72.37000000    55.83000000
   C     77.38000000    72.88000000    58.18000000
   C     76.37000000    73.68000000    58.99000000
   C     75.53000000    72.83000000    59.93000000
   O     74.46000000    73.38000000    60.26000000
   O     75.90000000    71.70000000    60.33000000
   H     79.70000000    74.19000000    57.32000000
   H     76.83000000    73.90000000    56.42000000
   H     78.24000000    72.63000000    58.80000000
   H     76.93000000    71.95000000    57.82000000
   H     75.76000000    74.23000000    58.27000000
   H     76.84000000    74.39000000    59.67000000
   N     77.53000000    71.70000000    55.10000000
   C     76.10000000    71.63000000    54.90000000
   H     75.63700000    72.54600000    55.26800000
   H     75.88600000    71.51700000    53.83700000
   H     75.69800000    70.77600000    55.44500000
   H     78.13000000    71.02000000    54.66000000
  Ca     66.68000000    89.38000000    51.41000000
   O     65.17000000    91.34000000    50.41000000
   H     64.25000000    91.12000000    50.29000000
   H     65.20000000    92.29000000    50.36000000
   O     65.23000000    90.62000000    53.42000000
   H     64.92000000    91.52000000    53.57000000
   H     65.41000000    90.28000000    54.29000000
   O     66.41000000    89.12000000    48.75000000
   H     67.08000000    89.14000000    48.07000000
   H     66.01000000    88.26000000    48.66000000
   O     68.59000000    91.24000000    51.41000000
   H     68.90000000    91.40000000    50.52000000
   H     69.01000000    91.92000000    51.94000000

Ca 1.00



