%chk=loop3.holoCaM-CaMKII.run85.water2.chk
%nprocshared=20
%mem=10GB
%nosave
#b3lyp/svp scf=(tight,noincore,xqc) Test 
#IOP(5/87=12) Density=Current Pop=(MK,readradii) iop(6/33=2) iop(6/42=6)

loop3.holoCaM-CaMKII.run85.water2 

   0  1 
   C     47.02000000    32.99000000    -3.50100000
   C     46.57000000    31.75000000    -2.74100000
   O     47.41000000    31.23000000    -2.01100000
   H     48.02100000    32.82700000    -3.90000000
   H     46.33000000    33.18400000    -4.32200000
   H     47.03300000    33.84600000    -2.82600000
   N     45.31000000    31.31000000    -2.76100000
   C     44.79000000    30.13000000    -2.10100000
   C     45.35000000    28.97000000    -2.89100000
   O     45.01000000    28.85000000    -4.07100000
   C     43.28000000    30.18000000    -1.90100000
   C     42.76000000    28.99000000    -1.11100000
   O     41.60000000    28.99000000    -0.65100000
   O     43.56000000    28.06000000    -0.86100000
   H     44.74000000    31.86000000    -3.38100000
   H     45.28000000    30.10000000    -1.12100000
   H     42.89000000    30.38000000    -2.90100000
   H     43.05000000    31.11000000    -1.38100000
   N     46.08000000    28.02000000    -2.29100000
   C     46.81000000    27.06000000    -3.08100000
   C     45.91000000    25.93000000    -3.58100000
   O     46.15000000    25.38000000    -4.65100000
   C     47.98000000    26.55000000    -2.25100000
   C     48.94000000    25.71000000    -3.08100000
   C     50.31000000    25.49000000    -2.45100000
   C     50.26000000    24.54000000    -1.27100000
   N     51.47000000    24.40000000    -0.44100000
   H     46.19000000    27.92000000    -1.29100000
   H     47.30000000    27.65000000    -3.85100000
   H     47.77000000    26.11000000    -1.27100000
   H     48.46000000    27.47000000    -1.92100000
   H     49.10000000    26.26000000    -4.02100000
   H     48.50000000    24.75000000    -3.34100000
   H     50.81000000    26.46000000    -2.34100000
   H     50.88000000    24.93000000    -3.19100000
   H     49.94000000    23.55000000    -1.61100000
   H     49.49000000    24.94000000    -0.61100000
   H     51.87000000    25.32000000    -0.41100000
   H     51.30000000    24.19000000     0.52900000
   H     52.05000000    23.71000000    -0.90100000
   N     44.87000000    25.64000000    -2.79100000
   C     44.04000000    24.45000000    -2.83100000
   C     42.55000000    24.70000000    -2.96100000
   O     41.75000000    23.79000000    -3.20100000
   C     44.36000000    23.75000000    -1.51100000
   C     44.18000000    24.68000000    -0.32100000
   O     45.20000000    25.09000000     0.27900000
   O     43.02000000    25.06000000    -0.06100000
   H     44.79000000    26.25000000    -1.99100000
   H     44.38000000    23.90000000    -3.71100000
   H     45.37000000    23.33000000    -1.52100000
   H     43.62000000    22.97000000    -1.36100000
   N     42.08000000    25.94000000    -2.87100000
   C     40.71000000    26.40000000    -2.99100000
   C     39.70000000    26.17000000    -1.88100000
   O     38.54000000    25.96000000    -2.25100000
   H     42.80000000    26.57000000    -2.54100000
   H     40.30000000    25.97000000    -3.90100000
   H     40.87000000    27.47000000    -3.12100000
   N     40.09000000    26.18000000    -0.61100000
   C     39.14000000    25.97000000     0.45900000
   C     38.46000000    27.21000000     1.01900000
   O     37.57000000    27.13000000     1.86900000
   C     39.78000000    25.22000000     1.63900000
   C     40.60000000    26.10000000     2.56900000
   N     40.45000000    25.93000000     3.88900000
   O     41.35000000    26.99000000     2.16900000
   H     41.04000000    26.38000000    -0.31100000
   H     38.33000000    25.34000000     0.08900000
   H     40.36000000    24.39000000     1.24900000
   H     38.93000000    24.83000000     2.18900000
   H     39.79000000    25.27000000     4.27900000
   H     41.16000000    26.36000000     4.46900000
   N     38.90000000    28.39000000     0.57900000
   C     38.42000000    29.68000000     1.02900000
   C     39.39000000    30.58000000     1.77900000
   O     39.00000000    31.73000000     1.96900000
   H     39.69000000    28.27000000    -0.03100000
   H     37.49000000    29.65000000     1.59900000
   H     38.08000000    30.29000000     0.18900000
   N     40.49000000    29.98000000     2.23900000
   C     41.32000000    30.60000000     3.25900000
   C     42.76000000    30.53000000     2.77900000
   O     43.16000000    29.44000000     2.36900000
   C     41.14000000    29.81000000     4.54900000
   C     39.82000000    30.01000000     5.24900000
   C     39.68000000    31.29000000     5.78900000
   C     38.70000000    29.18000000     5.06900000
   C     38.42000000    31.69000000     6.23900000
   C     37.42000000    29.58000000     5.48900000
   C     37.29000000    30.87000000     6.02900000
   O     36.09000000    31.40000000     6.41900000
   H     40.64000000    29.01000000     1.99900000
   H     41.07000000    31.66000000     3.32900000
   H     41.95000000    30.02000000     5.25900000
   H     41.32000000    28.77000000     4.26900000
   H     40.55000000    31.94000000     5.75900000
   H     38.86000000    28.23000000     4.59900000
   H     38.37000000    32.65000000     6.73900000
   H     36.56000000    28.95000000     5.36900000
   H     36.07000000    32.33000000     6.64900000
   N     43.54000000    31.60000000     2.94900000
   C     44.97000000    31.69000000     2.73900000
   C     45.78000000    31.47000000     4.00900000
   O     45.56000000    32.10000000     5.04900000
   C     45.40000000    32.91000000     1.91900000
   C     44.63000000    33.04000000     0.60900000
   C     46.90000000    32.87000000     1.61900000
   C     44.40000000    34.50000000     0.20900000
   H     43.05000000    32.39000000     3.34900000
   H     45.17000000    30.86000000     2.05900000
   H     45.24000000    33.73000000     2.60900000
   H     43.64000000    32.61000000     0.74900000
   H     45.09000000    32.49000000    -0.21100000
   H     47.51000000    33.07000000     2.49900000
   H     47.14000000    31.89000000     1.22900000
   H     47.02000000    33.67000000     0.88900000
   H     45.28000000    35.07000000    -0.06100000
   H     43.67000000    34.47000000    -0.59100000
   H     43.95000000    35.02000000     1.04900000
   N     46.75000000    30.56000000     3.94900000
   C     47.71000000    30.29000000     5.00900000
   C     49.12000000    30.83000000     4.82900000
   O     49.54000000    30.89000000     3.67900000
   C     47.81000000    28.81000000     5.34900000
   O     46.58000000    28.14000000     5.18900000
   H     46.72000000    30.02000000     3.09900000
   H     47.38000000    30.68000000     5.96900000
   H     48.16000000    28.64000000     6.36900000
   H     48.44000000    28.32000000     4.60900000
   H     46.42000000    27.94000000     4.26900000
   N     49.88000000    30.94000000     5.91900000
   C     51.30000000    31.25000000     5.85900000
   C     52.09000000    30.48000000     4.80900000
   O     52.85000000    31.08000000     4.06900000
   C     51.93000000    31.24000000     7.24900000
   H     49.46000000    30.80000000     6.82900000
   H     51.28000000    32.26000000     5.45900000
   H     51.42000000    31.88000000     7.96900000
   H     51.91000000    30.19000000     7.55900000
   H     52.99000000    31.50000000     7.25900000
   N     51.90000000    29.16000000     4.68900000
   C     52.74000000    28.42000000     3.76900000
   C     52.28000000    28.52000000     2.31900000
   O     53.07000000    28.42000000     1.38900000
   C     52.94000000    27.00000000     4.28900000
   H     51.46000000    28.66000000     5.45900000
   H     53.72000000    28.89000000     3.68900000
   H     53.71000000    26.60000000     3.63900000
   H     53.19000000    27.04000000     5.34900000
   H     52.02000000    26.43000000     4.18900000
   N     51.03000000    28.92000000     2.09900000
   C     50.47000000    29.29000000     0.81900000
   C     50.94000000    30.66000000     0.36900000
   O     51.23000000    30.91000000    -0.80100000
   C     48.95000000    29.29000000     0.93900000
   C     48.45000000    27.93000000     1.38900000
   C     46.93000000    27.90000000     1.52900000
   O     46.29000000    27.74000000     0.46900000
   O     46.23000000    28.06000000     2.55900000
   H     50.55000000    29.22000000     2.93900000
   H     50.72000000    28.57000000     0.02900000
   H     48.48000000    29.55000000    -0.01100000
   H     48.69000000    30.04000000     1.68900000
   H     48.86000000    27.54000000     2.31900000
   H     48.68000000    27.18000000     0.62900000
   N     51.06000000    31.64000000     1.27900000
   C     51.54000000    32.98000000     0.99900000
   H     52.51700000    32.92200000     0.51800000
   H     50.83900000    33.48700000     0.33600000
   H     51.62700000    33.53800000     1.93100000
   H     50.77000000    31.36000000     2.19900000
  Ca     43.96000000    27.11000000     1.43000000
   O     43.88000000    24.48000000     2.74000000
   H     44.27000000    23.85000000     2.13000000
   H     43.71000000    23.97000000     3.53000000
   O     44.03000000    26.88000000     4.32000000
   H     44.75000000    27.16000000     4.88000000
   H     43.26000000    26.89000000     4.90000000

Ca 1.00



