%chk=loop4.holoCaM-CaMKII.run14.water2.chk
%nprocshared=20
%mem=10GB
%nosave
#b3lyp/svp scf=(tight,noincore,xqc) Test 
#IOP(5/87=12) Density=Current Pop=(MK,readradii) iop(6/33=2) iop(6/42=6)

loop4.holoCaM-CaMKII.run14.water2 

   -3  1 
   C     84.18000000    54.28000000    31.63000000
   C     84.38000000    54.04000000    33.12000000
   O     83.84000000    54.82000000    33.91000000
   H     83.48900000    55.11100000    31.48600000
   H     85.13800000    54.52000000    31.16800000
   H     83.76900000    53.38200000    31.16900000
   N     85.25000000    53.10000000    33.50000000
   C     85.70000000    52.86000000    34.85000000
   C     86.97000000    53.62000000    35.20000000
   O     87.95000000    53.71000000    34.47000000
   C     85.79000000    51.36000000    35.11000000
   C     86.32000000    51.05000000    36.51000000
   O     85.90000000    51.75000000    37.46000000
   O     86.97000000    50.00000000    36.69000000
   H     85.60000000    52.56000000    32.72000000
   H     84.83000000    53.19000000    35.42000000
   H     86.57000000    50.88000000    34.51000000
   H     84.81000000    50.89000000    35.00000000
   N     86.89000000    54.23000000    36.39000000
   C     87.88000000    55.08000000    37.02000000
   C     88.53000000    54.32000000    38.16000000
   O     89.57000000    54.76000000    38.65000000
   C     87.33000000    56.47000000    37.37000000
   C     86.15000000    57.00000000    36.57000000
   C     88.49000000    57.46000000    37.46000000
   C     86.43000000    57.12000000    35.08000000
   H     85.98000000    54.12000000    36.82000000
   H     88.70000000    55.25000000    36.33000000
   H     86.81000000    56.34000000    38.32000000
   H     85.75000000    57.92000000    37.00000000
   H     85.34000000    56.28000000    36.66000000
   H     88.09000000    58.44000000    37.68000000
   H     89.21000000    57.41000000    38.28000000
   H     89.00000000    57.51000000    36.49000000
   H     85.57000000    57.53000000    34.55000000
   H     87.28000000    57.76000000    34.83000000
   H     86.60000000    56.12000000    34.67000000
   N     88.02000000    53.16000000    38.58000000
   C     88.50000000    52.46000000    39.75000000
   C     89.34000000    51.22000000    39.50000000
   O     90.11000000    50.92000000    40.42000000
   C     87.33000000    52.15000000    40.69000000
   C     86.36000000    53.23000000    41.14000000
   O     85.18000000    53.20000000    40.74000000
   O     86.87000000    54.17000000    41.79000000
   H     87.25000000    52.75000000    38.07000000
   H     89.21000000    53.04000000    40.34000000
   H     87.73000000    51.59000000    41.53000000
   H     86.72000000    51.46000000    40.10000000
   N     89.14000000    50.50000000    38.40000000
   C     89.65000000    49.16000000    38.17000000
   C     88.80000000    48.03000000    38.74000000
   O     89.28000000    46.98000000    39.18000000
   H     88.62000000    50.86000000    37.61000000
   H     90.63000000    49.14000000    38.63000000
   H     89.62000000    48.97000000    37.10000000
   N     87.50000000    48.30000000    38.79000000
   C     86.51000000    47.32000000    39.19000000
   C     85.77000000    46.61000000    38.06000000
   O     85.25000000    45.51000000    38.24000000
   C     85.51000000    47.77000000    40.26000000
   C     84.73000000    49.04000000    39.95000000
   O     84.38000000    49.79000000    40.88000000
   O     84.41000000    49.27000000    38.76000000
   H     87.24000000    49.18000000    38.37000000
   H     86.95000000    46.47000000    39.70000000
   H     86.06000000    47.90000000    41.19000000
   H     84.82000000    46.94000000    40.40000000
   N     85.98000000    47.09000000    36.84000000
   C     85.29000000    46.69000000    35.63000000
   C     83.83000000    47.10000000    35.52000000
   O     83.13000000    46.51000000    34.70000000
   H     86.46000000    47.98000000    36.80000000
   H     85.42000000    45.61000000    35.55000000
   H     85.85000000    47.13000000    34.80000000
   N     83.29000000    48.04000000    36.30000000
   C     81.94000000    48.55000000    36.16000000
   C     81.85000000    50.06000000    36.34000000
   O     82.70000000    50.74000000    36.90000000
   C     81.11000000    47.81000000    37.20000000
   C     81.01000000    46.31000000    36.99000000
   C     79.83000000    45.70000000    37.73000000
   N     80.08000000    45.19000000    38.93000000
   O     78.70000000    45.54000000    37.28000000
   H     83.84000000    48.53000000    37.00000000
   H     81.60000000    48.28000000    35.17000000
   H     80.09000000    48.21000000    37.20000000
   H     81.46000000    47.94000000    38.23000000
   H     81.92000000    45.78000000    37.28000000
   H     80.89000000    46.06000000    35.93000000
   H     81.03000000    45.16000000    39.26000000
   H     79.37000000    44.68000000    39.45000000
   N     80.78000000    50.60000000    35.75000000
   C     80.50000000    52.02000000    35.64000000
   C     79.31000000    52.41000000    36.50000000
   O     78.21000000    51.91000000    36.29000000
   C     80.29000000    52.27000000    34.15000000
   C     80.13000000    53.76000000    33.89000000
   C     81.32000000    51.65000000    33.21000000
   H     80.11000000    50.09000000    35.18000000
   H     81.39000000    52.58000000    35.92000000
   H     79.37000000    51.77000000    33.85000000
   H     79.13000000    54.14000000    34.13000000
   H     81.02000000    54.28000000    34.23000000
   H     80.15000000    53.89000000    32.81000000
   H     81.16000000    51.93000000    32.17000000
   H     82.34000000    51.94000000    33.46000000
   H     81.24000000    50.57000000    33.25000000
   N     79.46000000    53.43000000    37.36000000
   C     78.44000000    54.04000000    38.19000000
   C     77.75000000    55.22000000    37.52000000
   O     78.31000000    55.74000000    36.55000000
   C     79.16000000    54.38000000    39.49000000
   C     78.23000000    55.01000000    40.53000000
   N     77.18000000    54.28000000    40.91000000
   O     78.36000000    56.20000000    40.80000000
   H     80.40000000    53.72000000    37.57000000
   H     77.65000000    53.33000000    38.42000000
   H     79.97000000    55.09000000    39.34000000
   H     79.65000000    53.48000000    39.85000000
   H     76.92000000    53.38000000    40.54000000
   H     76.62000000    54.84000000    41.53000000
   N     76.66000000    55.72000000    38.11000000
   C     76.06000000    56.94000000    37.63000000
   C     77.02000000    58.12000000    37.60000000
   O     77.03000000    58.86000000    36.62000000
   C     74.82000000    57.21000000    38.49000000
   C     74.19000000    58.41000000    37.83000000
   C     73.65000000    58.28000000    36.54000000
   C     74.14000000    59.64000000    38.48000000
   C     73.12000000    59.41000000    35.90000000
   C     73.52000000    60.73000000    37.85000000
   C     72.99000000    60.66000000    36.55000000
   O     72.39000000    61.69000000    35.89000000
   H     76.15000000    55.20000000    38.82000000
   H     75.85000000    56.77000000    36.57000000
   H     75.20000000    57.54000000    39.46000000
   H     74.16000000    56.36000000    38.66000000
   H     73.77000000    57.38000000    35.95000000
   H     74.42000000    59.72000000    39.52000000
   H     72.88000000    59.26000000    34.86000000
   H     73.47000000    61.67000000    38.39000000
   H     72.66000000    62.58000000    36.11000000
   N     77.90000000    58.32000000    38.58000000
   C     78.85000000    59.41000000    38.67000000
   C     80.01000000    59.20000000    37.70000000
   O     80.76000000    60.11000000    37.36000000
   C     79.44000000    59.47000000    40.07000000
   C     78.41000000    59.85000000    41.13000000
   C     79.06000000    60.29000000    42.43000000
   O     79.74000000    59.47000000    43.07000000
   O     78.84000000    61.43000000    42.91000000
   H     77.98000000    57.57000000    39.25000000
   H     78.46000000    60.39000000    38.39000000
   H     80.20000000    60.25000000    40.15000000
   H     79.91000000    58.49000000    40.19000000
   H     77.70000000    59.04000000    41.32000000
   H     77.86000000    60.68000000    40.68000000
   N     80.14000000    58.02000000    37.10000000
   C     81.12000000    57.77000000    36.06000000
   C     80.41000000    57.77000000    34.71000000
   O     81.04000000    58.18000000    33.73000000
   C     81.68000000    56.38000000    36.34000000
   C     82.45000000    56.04000000    37.62000000
   C     83.00000000    54.63000000    37.76000000
   O     84.21000000    54.40000000    38.01000000
   O     82.21000000    53.67000000    37.86000000
   H     79.46000000    57.30000000    37.34000000
   H     81.96000000    58.46000000    36.07000000
   H     82.34000000    56.09000000    35.52000000
   H     80.84000000    55.68000000    36.33000000
   H     81.84000000    56.35000000    38.47000000
   H     83.31000000    56.71000000    37.67000000
   N     79.13000000    57.44000000    34.60000000
   C     78.25000000    57.55000000    33.44000000
   H     77.36700000    58.13000000    33.70800000
   H     78.77900000    58.04900000    32.62800000
   H     77.94600000    56.55400000    33.11800000
   H     78.70000000    57.11000000    35.45000000
  Ca     83.74000000    51.89000000    39.10000000
   O     82.29000000    52.82000000    41.01000000
   H     82.35000000    52.59000000    41.94000000
   H     81.96000000    53.72000000    41.01000000
   O     81.46000000    50.38000000    39.77000000
   H     80.97000000    50.60000000    40.56000000
   H     81.66000000    49.45000000    39.85000000

Ca 1.00



