%chk=loop2.apoCaM-CA-Ng.Init295.run75.water3.chk
%nprocshared=20
%mem=10GB
%nosave
#b3lyp/svp scf=(tight,noincore,xqc) Test 
#IOP(5/87=12) Density=Current Pop=(MK,readradii) iop(6/33=2) iop(6/42=6)

loop2.apoCaM-CA-Ng.Init295.run75.water3 

   -2  1 
   C     19.91000000     4.86000000    43.71000000
   C     20.86000000     5.71000000    44.54000000
   O     20.79000000     6.94000000    44.60000000
   H     19.01700000     5.43900000    43.47400000
   H     20.40300000     4.56100000    42.78500000
   H     19.62800000     3.97200000    44.27500000
   N     21.86000000     5.08000000    45.15000000
   C     22.86000000     5.71000000    45.99000000
   C     22.54000000     5.85000000    47.47000000
   O     23.34000000     6.53000000    48.11000000
   C     24.26000000     5.10000000    45.86000000
   C     24.86000000     5.11000000    44.47000000
   O     25.99000000     4.59000000    44.37000000
   O     24.36000000     5.76000000    43.53000000
   H     21.82000000     4.07000000    45.16000000
   H     22.99000000     6.74000000    45.66000000
   H     24.16000000     4.06000000    46.18000000
   H     24.91000000     5.59000000    46.59000000
   N     21.40000000     5.43000000    48.01000000
   C     20.95000000     5.69000000    49.36000000
   C     19.84000000     4.75000000    49.80000000
   O     19.17000000     4.15000000    48.97000000
   C     20.48000000     7.14000000    49.39000000
   H     20.79000000     4.94000000    47.36000000
   H     21.76000000     5.67000000    50.10000000
   H     19.68000000     7.31000000    50.11000000
   H     21.33000000     7.82000000    49.49000000
   H     19.98000000     7.36000000    48.44000000
   N     19.47000000     4.60000000    51.08000000
   C     20.06000000     5.07000000    52.32000000
   C     20.39000000     3.89000000    53.22000000
   O     19.72000000     2.86000000    53.15000000
   C     19.09000000     5.99000000    53.04000000
   C     19.78000000     6.90000000    54.05000000
   O     21.02000000     6.91000000    54.22000000
   O     19.10000000     7.48000000    54.93000000
   H     18.94000000     3.75000000    51.19000000
   H     20.96000000     5.61000000    52.05000000
   H     18.28000000     5.55000000    53.61000000
   H     18.64000000     6.60000000    52.25000000
   N     21.45000000     4.01000000    54.02000000
   C     21.97000000     2.84000000    54.71000000
   C     23.13000000     2.02000000    54.15000000
   O     24.00000000     2.52000000    53.45000000
   H     21.98000000     4.87000000    54.09000000
   H     21.12000000     2.22000000    54.98000000
   H     22.43000000     3.21000000    55.63000000
   N     23.32000000     0.73000000    54.40000000
   C     22.45000000    -0.27000000    54.99000000
   C     21.09000000    -0.22000000    54.32000000
   O     21.06000000    -0.27000000    53.09000000
   C     23.14000000    -1.63000000    55.04000000
   C     22.38000000    -2.69000000    55.83000000
   N     22.92000000    -3.88000000    56.12000000
   O     21.24000000    -2.48000000    56.24000000
   H     24.10000000     0.40000000    53.85000000
   H     22.26000000     0.01000000    56.02000000
   H     24.13000000    -1.65000000    55.49000000
   H     23.27000000    -1.98000000    54.02000000
   H     23.84000000    -4.04000000    55.76000000
   H     22.34000000    -4.57000000    56.58000000
   N     19.98000000    -0.04000000    55.05000000
   C     18.69000000     0.22000000    54.44000000
   C     17.78000000     1.14000000    55.24000000
   O     16.76000000     0.67000000    55.73000000
   H     20.05000000    -0.08000000    56.05000000
   H     18.26000000    -0.76000000    54.24000000
   H     18.83000000     0.62000000    53.44000000
   N     18.14000000     2.43000000    55.36000000
   C     17.67000000     3.39000000    56.34000000
   C     16.75000000     4.46000000    55.78000000
   O     16.97000000     5.64000000    56.06000000
   C     18.83000000     4.04000000    57.09000000
   C     19.63000000     3.01000000    57.88000000
   O     19.68000000     4.79000000    56.25000000
   H     18.88000000     2.70000000    54.74000000
   H     17.08000000     2.80000000    57.04000000
   H     18.33000000     4.69000000    57.80000000
   H     19.30000000     5.66000000    56.13000000
   H     18.89000000     2.66000000    58.59000000
   H     20.03000000     2.25000000    57.21000000
   H     20.41000000     3.43000000    58.51000000
   N     15.78000000     4.02000000    54.97000000
   C     14.89000000     4.86000000    54.19000000
   C     13.65000000     5.33000000    54.93000000
   O     12.95000000     4.48000000    55.48000000
   C     14.71000000     4.07000000    52.90000000
   C     15.99000000     4.15000000    52.07000000
   C     14.11000000     2.67000000    53.03000000
   C     15.88000000     3.67000000    50.63000000
   H     15.94000000     3.07000000    54.67000000
   H     15.41000000     5.79000000    53.97000000
   H     14.02000000     4.70000000    52.33000000
   H     16.71000000     3.46000000    52.53000000
   H     16.31000000     5.19000000    52.01000000
   H     14.08000000     2.21000000    52.04000000
   H     14.58000000     2.02000000    53.76000000
   H     13.08000000     2.80000000    53.36000000
   H     14.96000000     4.12000000    50.25000000
   H     16.79000000     4.03000000    50.16000000
   H     15.83000000     2.59000000    50.55000000
   N     13.41000000     6.64000000    54.99000000
   C     12.32000000     7.25000000    55.71000000
   C     11.68000000     8.30000000    54.82000000
   O     12.39000000     9.09000000    54.20000000
   C     12.79000000     7.77000000    57.07000000
   C     13.84000000     6.97000000    57.84000000
   O     13.38000000     6.01000000    58.51000000
   O     15.03000000     7.33000000    57.79000000
   H     14.18000000     7.26000000    54.76000000
   H     11.45000000     6.61000000    55.86000000
   H     11.98000000     7.96000000    57.77000000
   H     13.35000000     8.67000000    56.82000000
   N     10.35000000     8.31000000    54.71000000
   C      9.63000000     9.31000000    53.95000000
   C      9.98000000     9.12000000    52.49000000
   O     10.18000000     7.97000000    52.08000000
   C      8.16000000     9.09000000    54.32000000
   C      7.20000000     9.80000000    53.41000000
   C      6.85000000     9.28000000    52.16000000
   C      6.71000000    11.05000000    53.82000000
   C      6.00000000     9.97000000    51.28000000
   C      5.92000000    11.76000000    52.90000000
   C      5.66000000    11.29000000    51.61000000
   H      9.85000000     7.62000000    55.25000000
   H      9.93000000    10.32000000    54.23000000
   H      8.03000000     9.46000000    55.34000000
   H      8.03000000     8.01000000    54.20000000
   H      7.27000000     8.35000000    51.80000000
   H      6.90000000    11.52000000    54.77000000
   H      5.65000000     9.58000000    50.34000000
   H      5.50000000    12.69000000    53.26000000
   H      5.03000000    11.90000000    50.98000000
   N     10.21000000    10.16000000    51.68000000
   C     10.50000000    10.09000000    50.26000000
   C     11.77000000     9.43000000    49.74000000
   O     11.95000000     9.21000000    48.55000000
   C     10.35000000    11.49000000    49.68000000
   C     10.81000000    12.35000000    50.86000000
   C     10.28000000    11.56000000    52.05000000
   H      9.82000000     9.37000000    49.81000000
   H     10.90000000    11.77000000    48.78000000
   H      9.34000000    11.84000000    49.48000000
   H     11.89000000    12.22000000    50.78000000
   H     10.50000000    13.38000000    50.98000000
   H     10.99000000    11.75000000    52.86000000
   H      9.27000000    11.90000000    52.25000000
   N     12.67000000     9.09000000    50.67000000
   C     13.89000000     8.32000000    50.48000000
   C     13.62000000     6.94000000    49.89000000
   O     14.49000000     6.34000000    49.26000000
   C     14.62000000     8.14000000    51.81000000
   C     15.13000000     9.47000000    52.35000000
   C     15.94000000     9.16000000    53.60000000
   O     16.95000000     9.86000000    53.82000000
   O     15.63000000     8.27000000    54.43000000
   H     12.45000000     9.39000000    51.61000000
   H     14.57000000     8.78000000    49.76000000
   H     15.51000000     7.55000000    51.59000000
   H     13.99000000     7.56000000    52.49000000
   H     14.29000000    10.12000000    52.60000000
   H     15.65000000     9.95000000    51.53000000
   N     12.46000000     6.33000000    50.14000000
   C     11.96000000     5.06000000    49.65000000
   H     11.02600000     5.22100000    49.11200000
   H     12.69400000     4.61500000    48.97800000
   H     11.78400000     4.38900000    50.49100000
   H     11.84000000     6.85000000    50.73000000
  Ca     17.17000000     8.38000000    56.42000000
   O     19.09000000     7.25000000    58.11000000
   H     19.01000000     6.46000000    58.65000000
   H     19.94000000     7.61000000    58.33000000
   O     18.53000000    10.79000000    56.71000000
   H     18.24000000    11.17000000    57.53000000
   H     19.21000000    11.38000000    56.39000000
   O     15.53000000    10.50000000    56.83000000
   H     15.79000000    11.40000000    57.02000000
   H     14.81000000    10.59000000    56.21000000

Ca 1.00



