%chk=loop3.apoCaM-CA-Ng.Init31.run66.water6.chk
%nprocshared=20
%mem=10GB
%nosave
#b3lyp/svp scf=(tight,noincore,xqc) Test 
#IOP(5/87=12) Density=Current Pop=(MK,readradii) iop(6/33=2) iop(6/42=6)

loop3.apoCaM-CA-Ng.Init31.run66.water6 

   0  1 
   C    100.32000000    76.02000000    21.36000000
   C     99.04000000    75.92000000    20.53000000
   O     98.11000000    75.24000000    20.95000000
   H    101.07700000    76.56400000    20.79500000
   H    100.11100000    76.55000000    22.28900000
   H    100.68600000    75.01900000    21.58700000
   N     98.99000000    76.61000000    19.39000000
   C     97.89000000    76.46000000    18.46000000
   C     98.20000000    75.58000000    17.26000000
   O     99.37000000    75.37000000    16.96000000
   C     97.62000000    77.86000000    17.90000000
   C     98.67000000    78.35000000    16.91000000
   O     98.48000000    78.45000000    15.68000000
   O     99.71000000    78.83000000    17.42000000
   H     99.84000000    77.13000000    19.21000000
   H     96.97000000    76.17000000    18.95000000
   H     97.42000000    78.61000000    18.66000000
   H     96.66000000    77.85000000    17.38000000
   N     97.19000000    74.95000000    16.66000000
   C     97.37000000    74.12000000    15.49000000
   C     97.84000000    72.72000000    15.86000000
   O     98.63000000    72.17000000    15.09000000
   C     96.22000000    74.17000000    14.48000000
   C     95.77000000    75.52000000    13.92000000
   C     94.71000000    75.36000000    12.84000000
   C     94.21000000    76.61000000    12.12000000
   N     93.62000000    77.61000000    13.02000000
   H     96.24000000    74.97000000    17.02000000
   H     98.18000000    74.54000000    14.89000000
   H     95.43000000    73.66000000    15.04000000
   H     96.45000000    73.60000000    13.58000000
   H     96.64000000    76.04000000    13.51000000
   H     95.47000000    76.13000000    14.77000000
   H     93.87000000    74.88000000    13.34000000
   H     95.16000000    74.73000000    12.08000000
   H     93.41000000    76.33000000    11.43000000
   H     95.04000000    76.96000000    11.51000000
   H     92.84000000    77.26000000    13.56000000
   H     94.36000000    77.91000000    13.64000000
   H     93.33000000    78.46000000    12.56000000
   N     97.31000000    72.17000000    16.95000000
   C     97.68000000    70.82000000    17.33000000
   C     96.69000000    69.87000000    16.68000000
   O     95.94000000    69.16000000    17.35000000
   C     97.74000000    70.66000000    18.85000000
   C     96.59000000    71.25000000    19.64000000
   O     96.79000000    71.44000000    20.86000000
   O     95.47000000    71.55000000    19.18000000
   H     96.58000000    72.64000000    17.47000000
   H     98.61000000    70.48000000    16.89000000
   H     98.68000000    71.13000000    19.13000000
   H     97.78000000    69.59000000    19.03000000
   N     96.72000000    69.67000000    15.36000000
   C     95.92000000    68.71000000    14.63000000
   C     94.44000000    69.03000000    14.48000000
   O     94.01000000    70.12000000    14.83000000
   H     97.38000000    70.20000000    14.80000000
   H     96.10000000    67.72000000    15.04000000
   H     96.27000000    68.70000000    13.60000000
   N     93.64000000    68.06000000    14.01000000
   C     93.95000000    66.70000000    13.63000000
   C     94.12000000    65.74000000    14.80000000
   O     93.68000000    66.13000000    15.88000000
   C     92.76000000    66.28000000    12.77000000
   C     91.56000000    65.74000000    13.52000000
   N     90.50000000    66.55000000    13.68000000
   O     91.47000000    64.60000000    13.97000000
   H     92.66000000    68.28000000    14.15000000
   H     94.76000000    66.55000000    12.92000000
   H     93.00000000    65.48000000    12.06000000
   H     92.49000000    67.14000000    12.15000000
   H     90.53000000    67.45000000    13.24000000
   H     89.72000000    66.28000000    14.26000000
   N     94.68000000    64.54000000    14.63000000
   C     95.45000000    64.01000000    13.53000000
   C     96.83000000    64.65000000    13.60000000
   O     96.96000000    65.84000000    13.32000000
   H     94.67000000    64.00000000    15.48000000
   H     94.96000000    64.29000000    12.60000000
   H     95.53000000    62.95000000    13.76000000
   N     97.85000000    63.88000000    13.97000000
   C     99.17000000    64.35000000    14.32000000
   C    100.27000000    63.72000000    13.47000000
   O    100.28000000    62.53000000    13.17000000
   C     99.39000000    64.16000000    15.82000000
   C     98.26000000    64.35000000    16.81000000
   C     97.68000000    65.63000000    16.81000000
   C     97.79000000    63.34000000    17.66000000
   C     96.69000000    65.81000000    17.78000000
   C     96.81000000    63.57000000    18.63000000
   C     96.27000000    64.87000000    18.74000000
   O     95.43000000    65.21000000    19.77000000
   H     97.67000000    62.88000000    13.93000000
   H     99.16000000    65.40000000    14.03000000
   H    100.26000000    64.75000000    16.12000000
   H     99.66000000    63.11000000    15.93000000
   H     97.86000000    66.46000000    16.14000000
   H     98.31000000    62.40000000    17.62000000
   H     96.08000000    66.69000000    17.69000000
   H     96.57000000    62.77000000    19.30000000
   H     95.32000000    64.47000000    20.37000000
   N    101.19000000    64.58000000    13.06000000
   C    102.11000000    64.34000000    11.96000000
   C    103.57000000    64.61000000    12.26000000
   O    104.41000000    63.98000000    11.61000000
   C    101.63000000    64.94000000    10.64000000
   C    100.20000000    64.49000000    10.37000000
   C    101.65000000    66.47000000    10.65000000
   C     99.68000000    64.71000000     8.95000000
   H    101.11000000    65.48000000    13.52000000
   H    102.13000000    63.28000000    11.70000000
   H    102.29000000    64.59000000     9.84000000
   H     99.58000000    65.06000000    11.06000000
   H     99.99000000    63.47000000    10.68000000
   H    101.55000000    66.79000000     9.61000000
   H    100.86000000    66.90000000    11.26000000
   H    102.67000000    66.77000000    10.89000000
   H     98.69000000    64.24000000     8.97000000
   H     99.56000000    65.77000000     8.76000000
   H    100.31000000    64.27000000     8.18000000
   N    103.92000000    65.45000000    13.24000000
   C    105.25000000    66.04000000    13.30000000
   C    105.28000000    67.54000000    13.09000000
   O    106.33000000    68.11000000    12.79000000
   C    106.06000000    65.72000000    14.54000000
   O    105.65000000    66.51000000    15.63000000
   H    103.22000000    65.87000000    13.83000000
   H    105.81000000    65.63000000    12.46000000
   H    107.11000000    65.94000000    14.33000000
   H    106.04000000    64.65000000    14.77000000
   H    104.69000000    66.52000000    15.61000000
   N    104.13000000    68.22000000    13.13000000
   C    103.88000000    69.64000000    13.03000000
   C    104.40000000    70.32000000    14.29000000
   O    103.68000000    71.20000000    14.75000000
   C    102.42000000    69.84000000    12.63000000
   H    103.26000000    67.73000000    13.26000000
   H    104.51000000    70.09000000    12.27000000
   H    101.73000000    69.55000000    13.42000000
   H    102.12000000    70.87000000    12.43000000
   H    102.24000000    69.13000000    11.83000000
   N    105.52000000    69.84000000    14.83000000
   C    105.94000000    69.86000000    16.22000000
   C    104.91000000    69.69000000    17.32000000
   O    105.17000000    70.02000000    18.48000000
   C    106.90000000    71.00000000    16.55000000
   H    106.03000000    69.13000000    14.31000000
   H    106.51000000    68.95000000    16.40000000
   H    106.42000000    71.98000000    16.50000000
   H    107.29000000    70.84000000    17.55000000
   H    107.71000000    70.94000000    15.82000000
   N    103.74000000    69.09000000    17.12000000
   C    102.74000000    68.78000000    18.12000000
   C    103.03000000    67.57000000    18.99000000
   O    102.59000000    67.51000000    20.14000000
   C    101.32000000    68.70000000    17.56000000
   C    100.98000000    67.40000000    16.83000000
   C    101.76000000    67.24000000    15.53000000
   O    102.87000000    66.67000000    15.43000000
   O    101.16000000    67.37000000    14.44000000
   H    103.55000000    68.57000000    16.27000000
   H    102.78000000    69.60000000    18.84000000
   H    101.02000000    69.47000000    16.85000000
   H    100.61000000    68.73000000    18.38000000
   H     99.92000000    67.37000000    16.59000000
   H    101.24000000    66.54000000    17.44000000
   N    103.83000000    66.62000000    18.50000000
   C    104.22000000    65.49000000    19.32000000
   H    105.11700000    65.74400000    19.88500000
   H    103.41300000    65.24600000    20.01100000
   H    104.42500000    64.63100000    18.68200000
   H    104.12000000    66.65000000    17.54000000
  Ca     94.31000000    71.85000000    21.82000000
   O     94.88000000    74.40000000    21.20000000
   H     95.34000000    75.05000000    20.66000000
   H     93.96000000    74.64000000    21.14000000
   O     96.60000000    73.31000000    23.18000000
   H     96.71000000    73.85000000    22.40000000
   H     97.05000000    73.79000000    23.87000000
   O     92.78000000    72.27000000    19.65000000
   H     92.82000000    71.73000000    18.86000000
   H     91.84000000    72.45000000    19.77000000
   O     91.73000000    71.20000000    22.63000000
   H     91.28000000    72.04000000    22.58000000
   H     91.10000000    70.61000000    23.06000000
   O     94.34000000    69.30000000    21.03000000
   H     94.03000000    68.78000000    20.29000000
   H     94.92000000    68.72000000    21.52000000
   O     95.02000000    70.44000000    23.99000000
   H     94.33000000    69.96000000    24.44000000
   H     95.82000000    69.97000000    24.21000000

Ca 1.00



