%chk=loop1.apoCaM-CA-Ng.Init293.run29.water4.chk
%nprocshared=20
%mem=10GB
%nosave
#b3lyp/svp scf=(tight,noincore,xqc) Test 
#IOP(5/87=12) Density=Current Pop=(MK,readradii) iop(6/33=2) iop(6/42=6)

loop1.apoCaM-CA-Ng.Init293.run29.water4 

   0  1 
   C     37.49000000    83.62000000    22.01000000
   C     37.88000000    82.57000000    23.04000000
   O     38.73000000    81.74000000    22.72000000
   H     36.61700000    84.16900000    22.36400000
   H     38.31900000    84.31200000    21.86400000
   H     37.25300000    83.13200000    21.06500000
   N     37.31000000    82.66000000    24.25000000
   C     37.61000000    81.79000000    25.37000000
   C     36.48000000    80.95000000    25.95000000
   O     36.59000000    80.38000000    27.03000000
   C     38.06000000    82.73000000    26.48000000
   C     36.95000000    83.60000000    27.05000000
   O     36.88000000    83.87000000    28.27000000
   O     36.02000000    83.94000000    26.29000000
   H     36.64000000    83.38000000    24.47000000
   H     38.50000000    81.19000000    25.20000000
   H     38.79000000    83.43000000    26.07000000
   H     38.59000000    82.22000000    27.29000000
   N     35.39000000    80.91000000    25.18000000
   C     34.24000000    80.08000000    25.46000000
   C     33.82000000    79.44000000    24.14000000
   O     33.03000000    80.08000000    23.44000000
   C     33.09000000    80.94000000    25.96000000
   C     33.35000000    81.44000000    27.38000000
   C     32.22000000    82.34000000    27.86000000
   C     32.21000000    83.59000000    26.97000000
   N     33.27000000    84.60000000    27.12000000
   H     35.45000000    81.41000000    24.30000000
   H     34.45000000    79.30000000    26.19000000
   H     32.15000000    80.38000000    26.01000000
   H     33.01000000    81.75000000    25.24000000
   H     34.29000000    81.98000000    27.35000000
   H     33.43000000    80.59000000    28.06000000
   H     32.47000000    82.58000000    28.89000000
   H     31.25000000    81.84000000    27.80000000
   H     31.32000000    84.15000000    27.26000000
   H     32.05000000    83.43000000    25.90000000
   H     34.20000000    84.25000000    26.94000000
   H     33.27000000    85.33000000    26.43000000
   H     33.37000000    84.95000000    28.06000000
   N     34.31000000    78.28000000    23.68000000
   C     35.27000000    77.38000000    24.28000000
   C     34.74000000    76.75000000    25.56000000
   O     33.65000000    77.05000000    26.04000000
   C     36.66000000    78.01000000    24.29000000
   C     37.74000000    77.26000000    23.53000000
   O     38.84000000    77.82000000    23.32000000
   O     37.62000000    76.09000000    23.12000000
   H     33.85000000    77.90000000    22.87000000
   H     35.26000000    76.47000000    23.68000000
   H     36.98000000    77.97000000    25.33000000
   H     36.69000000    79.06000000    23.98000000
   N     35.35000000    75.73000000    26.15000000
   C     36.69000000    75.18000000    26.04000000
   C     37.08000000    74.63000000    27.41000000
   O     36.25000000    74.22000000    28.22000000
   H     34.72000000    75.25000000    26.77000000
   H     37.39000000    75.99000000    25.88000000
   H     36.67000000    74.33000000    25.36000000
   N     38.38000000    74.44000000    27.63000000
   C     39.49000000    74.78000000    26.76000000
   C     39.79000000    76.26000000    26.64000000
   O     40.35000000    76.70000000    25.63000000
   C     40.72000000    73.95000000    27.13000000
   C     41.15000000    74.23000000    28.57000000
   O     41.83000000    75.25000000    28.80000000
   O     40.93000000    73.50000000    29.55000000
   H     38.50000000    73.87000000    28.45000000
   H     39.24000000    74.43000000    25.76000000
   H     41.56000000    74.17000000    26.47000000
   H     40.55000000    72.88000000    27.04000000
   N     39.31000000    77.03000000    27.62000000
   C     39.26000000    78.48000000    27.53000000
   C     40.55000000    79.26000000    27.66000000
   O     40.52000000    80.47000000    27.89000000
   H     38.73000000    76.59000000    28.32000000
   H     38.74000000    78.80000000    28.43000000
   H     38.68000000    78.72000000    26.64000000
   N     41.62000000    78.46000000    27.61000000
   C     42.95000000    79.02000000    27.50000000
   C     43.01000000    79.61000000    26.10000000
   O     42.59000000    79.00000000    25.12000000
   C     44.06000000    77.99000000    27.67000000
   C     45.44000000    78.26000000    27.08000000
   O     43.70000000    76.71000000    27.19000000
   H     41.37000000    77.52000000    27.33000000
   H     43.22000000    79.82000000    28.19000000
   H     44.15000000    77.84000000    28.74000000
   H     43.16000000    76.32000000    27.87000000
   H     45.62000000    79.33000000    27.14000000
   H     46.17000000    77.76000000    27.72000000
   H     45.56000000    77.73000000    26.13000000
   N     43.59000000    80.81000000    26.02000000
   C     43.70000000    81.73000000    24.90000000
   C     45.11000000    82.29000000    24.86000000
   O     45.51000000    83.33000000    25.36000000
   C     42.53000000    82.70000000    24.77000000
   C     42.50000000    83.53000000    23.49000000
   C     42.31000000    83.44000000    26.09000000
   C     41.33000000    84.51000000    23.39000000
   H     44.02000000    81.17000000    26.86000000
   H     43.62000000    81.18000000    23.96000000
   H     41.64000000    82.08000000    24.66000000
   H     42.42000000    82.88000000    22.62000000
   H     43.45000000    84.04000000    23.31000000
   H     41.38000000    84.00000000    26.04000000
   H     42.23000000    82.71000000    26.89000000
   H     43.05000000    84.23000000    26.26000000
   H     41.34000000    84.92000000    22.38000000
   H     40.39000000    83.98000000    23.57000000
   H     41.42000000    85.36000000    24.07000000
   N     46.00000000    81.53000000    24.21000000
   C     47.39000000    81.76000000    23.90000000
   C     47.76000000    81.55000000    22.44000000
   O     48.93000000    81.79000000    22.12000000
   C     48.33000000    80.97000000    24.81000000
   C     48.28000000    79.45000000    24.67000000
   O     48.11000000    81.31000000    26.16000000
   H     45.61000000    80.60000000    24.13000000
   H     47.54000000    82.83000000    24.02000000
   H     49.39000000    81.12000000    24.61000000
   H     48.08000000    82.27000000    26.15000000
   H     48.93000000    78.99000000    25.41000000
   H     47.29000000    79.02000000    24.86000000
   H     48.66000000    79.06000000    23.73000000
   N     46.82000000    81.28000000    21.53000000
   C     47.08000000    80.95000000    20.15000000
   C     47.79000000    79.61000000    20.13000000
   O     48.05000000    78.93000000    21.12000000
   C     47.85000000    82.05000000    19.42000000
   C     47.48000000    83.48000000    19.83000000
   O     47.53000000    82.00000000    18.05000000
   H     45.88000000    81.11000000    21.86000000
   H     46.10000000    80.70000000    19.74000000
   H     48.92000000    82.03000000    19.65000000
   H     47.65000000    82.85000000    17.63000000
   H     46.44000000    83.67000000    19.60000000
   H     47.63000000    83.59000000    20.90000000
   H     48.07000000    84.22000000    19.29000000
   N     48.09000000    79.14000000    18.92000000
   C     48.95000000    78.03000000    18.57000000
   C     48.45000000    76.60000000    18.48000000
   O     49.22000000    75.64000000    18.55000000
   C     49.76000000    78.33000000    17.31000000
   C     51.16000000    78.85000000    17.60000000
   C     51.82000000    79.56000000    16.42000000
   C     53.28000000    79.85000000    16.77000000
   N     54.01000000    80.41000000    15.62000000
   H     47.62000000    79.59000000    18.14000000
   H     49.66000000    77.89000000    19.38000000
   H     49.19000000    79.02000000    16.69000000
   H     49.83000000    77.46000000    16.65000000
   H     51.74000000    77.95000000    17.82000000
   H     51.17000000    79.53000000    18.46000000
   H     51.27000000    80.48000000    16.27000000
   H     51.82000000    78.99000000    15.49000000
   H     53.80000000    78.96000000    17.13000000
   H     53.24000000    80.55000000    17.61000000
   H     53.60000000    81.29000000    15.36000000
   H     54.98000000    80.51000000    15.88000000
   H     53.90000000    79.81000000    14.81000000
   N     47.17000000    76.25000000    18.31000000
   C     45.93000000    76.99000000    18.21000000
   C     45.90000000    78.18000000    17.25000000
   O     45.41000000    79.27000000    17.50000000
   C     45.39000000    77.31000000    19.60000000
   C     43.87000000    77.23000000    19.66000000
   C     43.31000000    77.35000000    21.08000000
   O     43.06000000    78.45000000    21.62000000
   O     43.28000000    76.30000000    21.74000000
   H     47.02000000    75.26000000    18.37000000
   H     45.19000000    76.32000000    17.76000000
   H     45.64000000    78.34000000    19.85000000
   H     45.87000000    76.60000000    20.28000000
   H     43.63000000    76.23000000    19.27000000
   H     43.39000000    77.94000000    18.99000000
   N     46.46000000    78.00000000    16.05000000
   C     46.31000000    78.93000000    14.95000000
   H     45.62800000    79.72900000    15.24100000
   H     47.28100000    79.35600000    14.69800000
   H     45.90700000    78.40600000    14.08300000
   H     46.92000000    77.12000000    15.90000000
  Ca     41.38000000    77.45000000    23.37000000
   O     42.73000000    75.41000000    24.31000000
   H     42.56000000    74.48000000    24.19000000
   H     43.18000000    75.46000000    25.16000000
   O     40.29000000    77.32000000    20.63000000
   H     39.67000000    76.62000000    20.45000000
   H     39.92000000    78.09000000    20.19000000
   O     40.20000000    75.12000000    22.78000000
   H     39.31000000    75.47000000    22.76000000
   H     40.08000000    74.17000000    22.80000000
   O     40.79000000    79.89000000    22.48000000
   H     41.30000000    80.12000000    21.70000000
   H     40.06000000    80.50000000    22.48000000

Ca 1.00



