%chk=loop1.apoCaM-CA-Ng.Init295.run42.water5.chk
%nprocshared=20
%mem=10GB
%nosave
#b3lyp/svp scf=(tight,noincore,xqc) Test 
#IOP(5/87=12) Density=Current Pop=(MK,readradii) iop(6/33=2) iop(6/42=6)

loop1.apoCaM-CA-Ng.Init295.run42.water5 

   0  1 
   C     90.67000000    61.55000000    35.44000000
   C     91.32000000    61.68000000    34.07000000
   O     90.69000000    62.02000000    33.07000000
   H     89.65700000    61.16300000    35.32600000
   H     91.25300000    60.86500000    36.05600000
   H     90.63300000    62.52800000    35.91900000
   N     92.63000000    61.46000000    34.03000000
   C     93.67000000    62.04000000    33.20000000
   C     93.42000000    63.45000000    32.68000000
   O     93.69000000    63.75000000    31.52000000
   C     94.01000000    61.08000000    32.06000000
   C     94.70000000    59.75000000    32.31000000
   O     95.08000000    59.09000000    31.32000000
   O     95.01000000    59.41000000    33.47000000
   H     92.99000000    61.17000000    34.93000000
   H     94.57000000    62.26000000    33.77000000
   H     94.72000000    61.63000000    31.45000000
   H     93.02000000    60.89000000    31.65000000
   N     92.92000000    64.40000000    33.47000000
   C     92.59000000    65.72000000    32.97000000
   C     93.79000000    66.39000000    32.32000000
   O     93.58000000    67.14000000    31.37000000
   C     91.99000000    66.64000000    34.03000000
   C     90.59000000    66.12000000    34.36000000
   C     89.95000000    67.07000000    35.36000000
   C     90.19000000    66.67000000    36.81000000
   N     89.71000000    67.66000000    37.78000000
   H     92.63000000    64.17000000    34.41000000
   H     91.77000000    65.60000000    32.26000000
   H     91.81000000    67.60000000    33.56000000
   H     92.65000000    66.72000000    34.90000000
   H     90.55000000    65.12000000    34.78000000
   H     90.01000000    66.11000000    33.43000000
   H     88.89000000    67.21000000    35.15000000
   H     90.42000000    68.04000000    35.16000000
   H     91.28000000    66.56000000    36.87000000
   H     89.67000000    65.72000000    36.88000000
   H     88.70000000    67.73000000    37.76000000
   H     89.94000000    67.58000000    38.76000000
   H     89.95000000    68.61000000    37.53000000
   N     95.01000000    66.26000000    32.86000000
   C     96.26000000    66.82000000    32.39000000
   C     96.87000000    66.15000000    31.16000000
   O     97.86000000    66.63000000    30.61000000
   C     97.31000000    66.71000000    33.48000000
   C     98.52000000    67.63000000    33.36000000
   O     99.36000000    67.50000000    34.28000000
   O     98.65000000    68.52000000    32.50000000
   H     95.06000000    65.48000000    33.50000000
   H     96.11000000    67.88000000    32.17000000
   H     97.72000000    65.70000000    33.49000000
   H     96.94000000    66.89000000    34.49000000
   N     96.32000000    65.02000000    30.74000000
   C     96.74000000    64.11000000    29.68000000
   C     97.88000000    63.11000000    29.83000000
   O     97.87000000    62.06000000    29.19000000
   H     95.45000000    64.78000000    31.20000000
   H     96.99000000    64.77000000    28.85000000
   H     95.83000000    63.71000000    29.24000000
   N     98.88000000    63.55000000    30.59000000
   C    100.19000000    62.96000000    30.76000000
   C    100.60000000    62.80000000    32.22000000
   O     99.89000000    63.11000000    33.17000000
   C    101.20000000    63.83000000    30.01000000
   C    100.83000000    65.30000000    30.00000000
   O    100.68000000    65.97000000    31.04000000
   O    100.47000000    65.78000000    28.90000000
   H     98.77000000    64.41000000    31.11000000
   H    100.12000000    62.01000000    30.23000000
   H    101.10000000    63.46000000    28.98000000
   H    102.18000000    63.57000000    30.42000000
   N    101.77000000    62.18000000    32.41000000
   C    102.15000000    61.73000000    33.73000000
   C    101.40000000    60.51000000    34.24000000
   O    101.99000000    59.47000000    34.55000000
   H    102.37000000    61.91000000    31.65000000
   H    102.14000000    62.56000000    34.43000000
   H    103.16000000    61.33000000    33.63000000
   N    100.11000000    60.69000000    34.50000000
   C     99.34000000    59.71000000    35.25000000
   C     99.78000000    59.74000000    36.71000000
   O    100.46000000    60.67000000    37.15000000
   C     97.85000000    59.96000000    35.08000000
   C     97.19000000    60.83000000    36.14000000
   O     97.46000000    60.50000000    33.84000000
   H     99.63000000    61.54000000    34.24000000
   H     99.59000000    58.77000000    34.77000000
   H     97.37000000    59.00000000    35.27000000
   H     96.59000000    60.18000000    33.59000000
   H     97.97000000    61.43000000    36.62000000
   H     96.54000000    61.61000000    35.75000000
   H     96.60000000    60.30000000    36.90000000
   N     99.44000000    58.66000000    37.42000000
   C     99.79000000    58.31000000    38.78000000
   C    100.41000000    56.92000000    38.90000000
   O    101.03000000    56.63000000    39.92000000
   C     98.53000000    58.54000000    39.61000000
   C     98.68000000    58.33000000    41.12000000
   C     97.35000000    57.78000000    39.02000000
   C     99.93000000    59.02000000    41.66000000
   H     98.94000000    58.04000000    36.80000000
   H    100.62000000    58.98000000    38.97000000
   H     98.29000000    59.60000000    39.54000000
   H     98.88000000    57.26000000    41.21000000
   H     97.84000000    58.71000000    41.70000000
   H     96.54000000    57.63000000    39.73000000
   H     96.99000000    58.44000000    38.24000000
   H     97.73000000    56.83000000    38.62000000
   H    100.87000000    58.60000000    41.32000000
   H     99.74000000    60.08000000    41.50000000
   H     99.81000000    58.90000000    42.73000000
   N    100.20000000    56.03000000    37.93000000
   C    100.55000000    54.62000000    37.91000000
   C     99.65000000    53.80000000    38.84000000
   O     98.44000000    53.99000000    38.83000000
   C    100.64000000    54.01000000    36.52000000
   C    101.68000000    54.64000000    35.60000000
   O    100.84000000    52.62000000    36.50000000
   H     99.66000000    56.34000000    37.15000000
   H    101.54000000    54.63000000    38.36000000
   H     99.67000000    54.12000000    36.02000000
   H    100.12000000    52.31000000    35.94000000
   H    101.53000000    55.72000000    35.55000000
   H    102.66000000    54.53000000    36.05000000
   H    101.71000000    54.19000000    34.61000000
   N    100.19000000    52.97000000    39.73000000
   C     99.42000000    52.16000000    40.65000000
   C     99.33000000    52.70000000    42.07000000
   O     98.56000000    52.21000000    42.90000000
   C     99.71000000    50.67000000    40.47000000
   C    101.16000000    50.27000000    40.77000000
   O     99.46000000    50.21000000    39.16000000
   H    101.19000000    52.96000000    39.86000000
   H     98.37000000    52.09000000    40.37000000
   H     99.08000000    50.05000000    41.11000000
   H    100.04000000    49.49000000    38.90000000
   H    101.45000000    50.64000000    41.76000000
   H    101.24000000    49.19000000    40.82000000
   H    101.85000000    50.70000000    40.05000000
   N    100.07000000    53.75000000    42.41000000
   C     99.99000000    54.56000000    43.61000000
   C     98.58000000    55.13000000    43.72000000
   O     98.00000000    55.55000000    42.72000000
   C    101.10000000    55.61000000    43.64000000
   C    101.36000000    56.06000000    45.08000000
   C    102.65000000    56.87000000    45.13000000
   C    102.92000000    57.06000000    46.62000000
   N    101.89000000    57.90000000    47.26000000
   H    100.66000000    54.06000000    41.65000000
   H    100.22000000    54.00000000    44.52000000
   H    100.82000000    56.48000000    43.04000000
   H    102.05000000    55.17000000    43.38000000
   H    101.31000000    55.21000000    45.76000000
   H    100.53000000    56.74000000    45.26000000
   H    102.56000000    57.84000000    44.64000000
   H    103.43000000    56.32000000    44.61000000
   H    103.91000000    57.45000000    46.85000000
   H    103.03000000    56.06000000    47.04000000
   H    101.79000000    58.72000000    46.67000000
   H    101.02000000    57.43000000    47.41000000
   H    102.17000000    58.40000000    48.10000000
   N     98.01000000    55.26000000    44.92000000
   C     96.84000000    56.04000000    45.26000000
   C     95.86000000    55.19000000    46.05000000
   O     96.28000000    54.65000000    47.07000000
   C     97.24000000    57.32000000    45.98000000
   C     98.10000000    58.31000000    45.19000000
   C     98.62000000    59.44000000    46.07000000
   O     99.75000000    59.34000000    46.60000000
   O     97.88000000    60.40000000    46.37000000
   H     98.50000000    54.74000000    45.63000000
   H     96.42000000    56.45000000    44.34000000
   H     97.75000000    57.04000000    46.90000000
   H     96.29000000    57.80000000    46.20000000
   H     97.55000000    58.66000000    44.32000000
   H     98.87000000    57.71000000    44.71000000
   N     94.58000000    55.06000000    45.71000000
   C     93.97000000    55.39000000    44.43000000
   H     93.07600000    55.99000000    44.59800000
   H     94.67800000    55.95600000    43.82500000
   H     93.69800000    54.47200000    43.90900000
   H     94.01000000    54.42000000    46.24000000
  Ca     99.92800000    68.17000000    30.15000000
   O     97.85000000    69.88000000    29.80000000
   H     97.81000000    70.52000000    30.50000000
   H     96.94000000    69.77000000    29.52000000
   O    102.48800000    67.64000000    29.14000000
   H    102.77800000    67.04000000    28.45000000
   H    102.96800000    67.35000000    29.92000000
   O    100.75800000    70.75000000    28.94000000
   H    100.33800000    71.28000000    28.27000000
   H    100.84800000    71.33000000    29.69000000
   O    101.49800000    69.33000000    31.87000000
   H    100.84800000    69.57000000    32.52000000
   H    102.29800000    69.78000000    32.14000000
   O     99.18000000    68.01000000    27.34000000
   H     98.48000000    67.72000000    26.75000000
   H     99.99000000    67.81000000    26.88000000

Ca 1.00



