%chk=loop1.holoCaM-CaMKII.run82.water1.chk
%nprocshared=20
%mem=10GB
%nosave
#b3lyp/svp scf=(tight,noincore,xqc) Test 
#IOP(5/87=12) Density=Current Pop=(MK,readradii) iop(6/33=2) iop(6/42=6)

loop1.holoCaM-CaMKII.run82.water1 

   0  1 
   C     49.88000000    59.64000000    89.04600000
   C     51.34000000    60.05000000    89.21600000
   O     52.22000000    59.47000000    88.59600000
   H     49.28300000    60.51800000    88.79800000
   H     49.79900000    58.90800000    88.24300000
   H     49.51400000    59.20300000    89.97500000
   N     51.71000000    61.13000000    89.90600000
   C     53.08000000    61.53000000    90.15600000
   C     53.75000000    60.47000000    91.01600000
   O     53.47000000    60.44000000    92.21600000
   C     52.93000000    62.94000000    90.70600000
   C     54.28000000    63.47000000    91.17600000
   O     54.29000000    64.45000000    91.96600000
   O     55.35000000    63.09000000    90.66600000
   H     50.96000000    61.66000000    90.34600000
   H     53.55000000    61.61000000    89.17600000
   H     52.22000000    62.94000000    91.52600000
   H     52.54000000    63.63000000    89.95600000
   N     54.66000000    59.72000000    90.40600000
   C     55.53000000    58.77000000    91.06600000
   C     56.72000000    59.37000000    91.80600000
   O     57.44000000    58.63000000    92.47600000
   C     55.96000000    57.73000000    90.02600000
   C     54.83000000    56.96000000    89.35600000
   C     53.92000000    56.38000000    90.44600000
   C     53.05000000    55.32000000    89.77600000
   N     51.93000000    55.93000000    89.03600000
   H     54.86000000    59.98000000    89.44600000
   H     54.91000000    58.42000000    91.88600000
   H     56.39000000    56.99000000    90.69600000
   H     56.69000000    58.08000000    89.29600000
   H     55.31000000    56.17000000    88.78600000
   H     54.32000000    57.63000000    88.66600000
   H     53.24000000    57.14000000    90.83600000
   H     54.50000000    55.96000000    91.26600000
   H     52.83000000    54.64000000    90.59600000
   H     53.63000000    54.75000000    89.04600000
   H     51.22000000    56.40000000    89.58600000
   H     52.35000000    56.61000000    88.41600000
   H     51.36000000    55.26000000    88.54600000
   N     57.10000000    60.63000000    91.57600000
   C     58.31000000    61.22000000    92.12600000
   C     58.02000000    61.90000000    93.44600000
   O     58.72000000    61.73000000    94.43600000
   C     58.99000000    62.18000000    91.14600000
   C     59.05000000    61.69000000    89.71600000
   O     58.39000000    62.17000000    88.76600000
   O     59.99000000    60.91000000    89.45600000
   H     56.54000000    61.16000000    90.93600000
   H     59.11000000    60.52000000    92.33600000
   H     60.04000000    62.26000000    91.43600000
   H     58.54000000    63.17000000    91.17600000
   N     57.05000000    62.82000000    93.52600000
   C     56.77000000    63.70000000    94.64600000
   C     57.09000000    65.15000000    94.34600000
   O     57.67000000    65.82000000    95.20600000
   H     56.46000000    62.83000000    92.70600000
   H     57.18000000    63.44000000    95.62600000
   H     55.68000000    63.68000000    94.70600000
   N     56.90000000    65.67000000    93.12600000
   C     57.36000000    66.98000000    92.68600000
   C     56.27000000    67.98000000    92.32600000
   O     56.46000000    69.14000000    91.95600000
   C     58.21000000    66.77000000    91.43600000
   C     57.61000000    65.90000000    90.33600000
   O     58.42000000    65.16000000    89.74600000
   O     56.41000000    66.03000000    90.01600000
   H     56.40000000    65.09000000    92.46600000
   H     57.98000000    67.48000000    93.41600000
   H     59.15000000    66.29000000    91.67600000
   H     58.44000000    67.73000000    90.97600000
   N     55.03000000    67.49000000    92.32600000
   C     53.90000000    68.29000000    91.88600000
   C     53.68000000    68.51000000    90.39600000
   O     52.86000000    69.38000000    90.09600000
   H     54.94000000    66.51000000    92.54600000
   H     53.94000000    69.24000000    92.41600000
   H     52.97000000    67.86000000    92.25600000
   N     54.19000000    67.73000000    89.44600000
   C     53.71000000    67.73000000    88.07600000
   C     53.60000000    66.32000000    87.52600000
   O     54.21000000    65.40000000    88.07600000
   C     54.51000000    68.62000000    87.12600000
   C     54.35000000    70.11000000    87.41600000
   O     55.88000000    68.32000000    87.13600000
   H     54.83000000    67.00000000    89.72600000
   H     52.68000000    68.10000000    88.12600000
   H     54.02000000    68.55000000    86.15600000
   H     56.35000000    68.69000000    87.88600000
   H     55.17000000    70.35000000    88.08600000
   H     54.38000000    70.54000000    86.40600000
   H     53.37000000    70.34000000    87.83600000
   N     52.69000000    66.17000000    86.55600000
   C     52.50000000    64.95000000    85.80600000
   C     52.98000000    65.05000000    84.37600000
   O     52.38000000    65.76000000    83.57600000
   C     51.10000000    64.34000000    85.92600000
   C     50.69000000    64.12000000    87.37600000
   C     50.79000000    63.13000000    85.04600000
   C     49.22000000    64.20000000    87.76600000
   H     52.00000000    66.91000000    86.49600000
   H     53.07000000    64.21000000    86.37600000
   H     50.41000000    65.13000000    85.60600000
   H     51.19000000    64.82000000    88.04600000
   H     51.09000000    63.14000000    87.62600000
   H     51.39000000    62.34000000    85.49600000
   H     49.72000000    62.97000000    85.13600000
   H     51.07000000    63.16000000    83.99600000
   H     48.62000000    63.45000000    87.23600000
   H     49.17000000    64.12000000    88.84600000
   H     48.80000000    65.14000000    87.40600000
   N     54.03000000    64.29000000    84.04600000
   C     54.62000000    64.14000000    82.73600000
   C     53.81000000    63.23000000    81.82600000
   O     52.91000000    62.50000000    82.24600000
   C     56.04000000    63.58000000    82.81600000
   C     56.93000000    64.37000000    83.77600000
   O     56.04000000    62.30000000    83.40600000
   H     54.47000000    63.65000000    84.69600000
   H     54.51000000    65.09000000    82.19600000
   H     56.49000000    63.43000000    81.83600000
   H     56.02000000    62.36000000    84.36600000
   H     56.34000000    64.68000000    84.63600000
   H     57.85000000    63.85000000    84.03600000
   H     57.27000000    65.28000000    83.28600000
   N     54.01000000    63.29000000    80.50600000
   C     53.38000000    62.38000000    79.57600000
   C     53.79000000    60.92000000    79.69600000
   O     52.95000000    60.06000000    79.44600000
   C     53.72000000    62.80000000    78.14600000
   C     52.46000000    62.66000000    77.30600000
   O     54.13000000    64.15000000    78.18600000
   H     54.66000000    63.99000000    80.18600000
   H     52.32000000    62.34000000    79.82600000
   H     54.57000000    62.24000000    77.76600000
   H     54.44000000    64.39000000    77.30600000
   H     51.81000000    63.53000000    77.31600000
   H     52.73000000    62.45000000    76.26600000
   H     51.84000000    61.87000000    77.72600000
   N     54.94000000    60.57000000    80.27600000
   C     55.21000000    59.20000000    80.66600000
   C     54.43000000    58.83000000    81.91600000
   O     54.05000000    57.66000000    81.93600000
   C     56.70000000    58.94000000    80.85600000
   C     57.14000000    57.53000000    81.24600000
   C     58.66000000    57.43000000    81.33600000
   C     59.16000000    56.02000000    81.61600000
   N     60.62000000    56.08000000    81.78600000
   H     55.63000000    61.28000000    80.47600000
   H     54.89000000    58.58000000    79.82600000
   H     57.07000000    59.58000000    81.65600000
   H     57.23000000    59.30000000    79.97600000
   H     56.72000000    56.90000000    80.45600000
   H     56.75000000    57.27000000    82.23600000
   H     58.88000000    57.99000000    82.24600000
   H     59.08000000    57.97000000    80.49600000
   H     58.88000000    55.39000000    80.76600000
   H     58.62000000    55.57000000    82.44600000
   H     60.86000000    56.39000000    80.85600000
   H     60.85000000    56.65000000    82.58600000
   H     60.98000000    55.15000000    81.97600000
   N     54.12000000    59.73000000    82.84600000
   C     53.45000000    59.35000000    84.07600000
   C     51.98000000    59.12000000    83.72600000
   O     51.28000000    58.27000000    84.25600000
   C     53.61000000    60.46000000    85.11600000
   C     54.95000000    60.31000000    85.82600000
   C     55.32000000    61.43000000    86.78600000
   O     55.55000000    61.25000000    88.00600000
   O     55.50000000    62.55000000    86.26600000
   H     54.37000000    60.70000000    82.73600000
   H     53.94000000    58.46000000    84.46600000
   H     52.86000000    60.34000000    85.89600000
   H     53.49000000    61.39000000    84.56600000
   H     55.73000000    60.14000000    85.07600000
   H     54.96000000    59.36000000    86.36600000
   N     51.48000000    59.94000000    82.79600000
   C     50.08000000    59.97000000    82.42600000
   H     49.53200000    60.59600000    83.13000000
   H     49.97800000    60.37900000    81.42100000
   H     49.67600000    58.95800000    82.45000000
   H     52.04000000    60.63000000    82.31600000
  Ca     56.40000000    63.76000000    88.37000000
   O     57.10000000    65.84000000    86.96000000
   H     58.00000000    66.15000000    87.05000000
   H     56.57000000    66.63000000    86.92000000

Ca 1.00



