%chk=loop3.apoCaM-CA-Ng.Init31.run17.water5.chk
%nprocshared=20
%mem=10GB
%nosave
#b3lyp/svp scf=(tight,noincore,xqc) Test 
#IOP(5/87=12) Density=Current Pop=(MK,readradii) iop(6/33=2) iop(6/42=6)

loop3.apoCaM-CA-Ng.Init31.run17.water5 

   0  1 
   C     95.27000000    77.81000000    17.15000000
   C     96.44000000    77.02000000    17.71000000
   O     96.30000000    75.87000000    18.10000000
   H     94.44400000    77.78900000    17.86100000
   H     95.57600000    78.84200000    16.98000000
   H     94.94900000    77.36600000    16.20800000
   N     97.63000000    77.62000000    17.63000000
   C     98.83000000    77.00000000    18.14000000
   C     99.12000000    77.37000000    19.59000000
   O     99.45000000    76.49000000    20.38000000
   C    100.02000000    77.33000000    17.24000000
   C    100.19000000    78.73000000    16.66000000
   O     99.50000000    79.63000000    17.20000000
   O    100.81000000    78.80000000    15.58000000
   H     97.76000000    78.59000000    17.36000000
   H     98.65000000    75.92000000    18.15000000
   H    100.14000000    76.60000000    16.44000000
   H    100.96000000    77.26000000    17.78000000
   N     99.25000000    78.67000000    19.86000000
   C     99.86000000    79.25000000    21.04000000
   C    101.18000000    78.62000000    21.45000000
   O    102.14000000    78.62000000    20.68000000
   C    100.01000000    80.76000000    20.86000000
   C     98.72000000    81.55000000    21.00000000
   C     98.81000000    83.04000000    20.68000000
   C     97.46000000    83.71000000    20.43000000
   N     97.75000000    85.13000000    20.14000000
   H     99.04000000    79.30000000    19.10000000
   H     99.13000000    79.05000000    21.83000000
   H    100.48000000    80.97000000    19.90000000
   H    100.63000000    81.14000000    21.68000000
   H     98.47000000    81.50000000    22.06000000
   H     97.91000000    81.10000000    20.43000000
   H     99.44000000    83.14000000    19.80000000
   H     99.43000000    83.54000000    21.42000000
   H     96.80000000    83.66000000    21.30000000
   H     97.08000000    83.18000000    19.56000000
   H     98.29000000    85.63000000    20.82000000
   H     98.35000000    85.21000000    19.34000000
   H     96.91000000    85.62000000    19.88000000
   N    101.26000000    78.05000000    22.66000000
   C    102.35000000    77.22000000    23.12000000
   C    102.63000000    75.94000000    22.34000000
   O    103.77000000    75.50000000    22.15000000
   C    102.15000000    76.86000000    24.59000000
   C    100.81000000    76.35000000    25.09000000
   O    100.82000000    76.11000000    26.32000000
   O     99.77000000    76.33000000    24.40000000
   H    100.38000000    77.96000000    23.14000000
   H    103.26000000    77.81000000    23.03000000
   H    102.30000000    77.81000000    25.10000000
   H    102.92000000    76.15000000    24.90000000
   N    101.63000000    75.29000000    21.74000000
   C    101.78000000    74.17000000    20.83000000
   C    102.38000000    74.56000000    19.49000000
   O    103.11000000    75.54000000    19.38000000
   H    100.72000000    75.72000000    21.77000000
   H    100.80000000    73.73000000    20.68000000
   H    102.43000000    73.40000000    21.25000000
   N    102.18000000    73.73000000    18.46000000
   C    101.41000000    72.50000000    18.42000000
   C    100.43000000    72.51000000    17.25000000
   O    100.93000000    72.54000000    16.13000000
   C    102.44000000    71.39000000    18.27000000
   C    103.37000000    71.22000000    19.45000000
   N    104.62000000    71.64000000    19.22000000
   O    103.02000000    70.84000000    20.57000000
   H    102.46000000    74.13000000    17.57000000
   H    100.85000000    72.27000000    19.32000000
   H    103.01000000    71.52000000    17.35000000
   H    101.98000000    70.41000000    18.10000000
   H    104.78000000    72.25000000    18.43000000
   H    105.31000000    71.49000000    19.94000000
   N     99.10000000    72.52000000    17.41000000
   C     98.44000000    72.82000000    18.66000000
   C     97.59000000    71.81000000    19.43000000
   O     96.98000000    72.19000000    20.43000000
   H     98.63000000    72.58000000    16.52000000
   H     97.79000000    73.64000000    18.37000000
   H     99.12000000    73.18000000    19.43000000
   N     97.51000000    70.57000000    18.95000000
   C     96.91000000    69.44000000    19.63000000
   C     97.90000000    69.05000000    20.72000000
   O     99.05000000    68.70000000    20.47000000
   C     96.80000000    68.31000000    18.60000000
   C     95.78000000    68.46000000    17.50000000
   C     94.78000000    69.44000000    17.50000000
   C     95.87000000    67.61000000    16.39000000
   C     93.95000000    69.64000000    16.39000000
   C     95.04000000    67.81000000    15.28000000
   C     94.11000000    68.86000000    15.23000000
   O     93.24000000    68.88000000    14.18000000
   H     98.01000000    70.37000000    18.10000000
   H     96.00000000    69.72000000    20.15000000
   H     96.54000000    67.38000000    19.11000000
   H     97.79000000    68.08000000    18.22000000
   H     94.58000000    70.07000000    18.35000000
   H     96.54000000    66.76000000    16.36000000
   H     93.19000000    70.41000000    16.37000000
   H     95.06000000    67.10000000    14.46000000
   H     93.43000000    68.22000000    13.50000000
   N     97.52000000    69.22000000    21.99000000
   C     98.25000000    68.84000000    23.18000000
   C     97.45000000    68.13000000    24.27000000
   O     98.13000000    67.46000000    25.05000000
   C     99.05000000    70.04000000    23.68000000
   C    100.19000000    70.55000000    22.80000000
   C     98.13000000    71.21000000    24.00000000
   C    101.10000000    71.63000000    23.38000000
   H     96.66000000    69.73000000    22.10000000
   H     99.01000000    68.09000000    22.92000000
   H     99.58000000    69.68000000    24.56000000
   H     99.83000000    70.86000000    21.82000000
   H    100.77000000    69.63000000    22.66000000
   H     98.64000000    71.90000000    24.68000000
   H     97.82000000    71.68000000    23.07000000
   H     97.27000000    70.84000000    24.55000000
   H    100.62000000    72.60000000    23.43000000
   H    101.37000000    71.28000000    24.38000000
   H    101.90000000    71.72000000    22.64000000
   N     96.14000000    68.35000000    24.29000000
   C     95.34000000    67.70000000    25.30000000
   C     94.12000000    68.54000000    25.67000000
   O     93.37000000    69.03000000    24.83000000
   C     94.81000000    66.40000000    24.70000000
   O     95.83000000    65.43000000    24.76000000
   H     95.66000000    68.94000000    23.62000000
   H     95.86000000    67.49000000    26.24000000
   H     94.40000000    66.55000000    23.70000000
   H     93.99000000    65.87000000    25.18000000
   H     95.84000000    65.26000000    25.71000000
   N     93.86000000    68.64000000    26.98000000
   C     92.65000000    69.21000000    27.54000000
   C     92.44000000    70.70000000    27.36000000
   O     93.40000000    71.43000000    27.12000000
   C     92.62000000    69.00000000    29.05000000
   H     94.50000000    68.22000000    27.63000000
   H     91.80000000    68.76000000    27.03000000
   H     92.31000000    67.99000000    29.31000000
   H     93.61000000    69.22000000    29.46000000
   H     91.94000000    69.66000000    29.59000000
   N     91.17000000    71.08000000    27.53000000
   C     90.69000000    72.41000000    27.20000000
   C     91.07000000    73.10000000    25.90000000
   O     90.56000000    74.18000000    25.64000000
   C     90.90000000    73.28000000    28.44000000
   H     90.51000000    70.32000000    27.63000000
   H     89.61000000    72.27000000    27.16000000
   H     90.43000000    74.25000000    28.25000000
   H     90.41000000    72.82000000    29.30000000
   H     91.95000000    73.53000000    28.62000000
   N     91.90000000    72.51000000    25.03000000
   C     92.28000000    73.11000000    23.77000000
   C     91.10000000    73.26000000    22.82000000
   O     90.89000000    74.29000000    22.17000000
   C     93.33000000    72.26000000    23.07000000
   C     94.70000000    72.03000000    23.70000000
   C     95.32000000    73.38000000    24.03000000
   O     95.56000000    74.22000000    23.14000000
   O     95.63000000    73.66000000    25.21000000
   H     92.48000000    71.75000000    25.34000000
   H     92.58000000    74.15000000    23.91000000
   H     93.45000000    72.69000000    22.08000000
   H     92.95000000    71.26000000    22.85000000
   H     95.38000000    71.48000000    23.04000000
   H     94.61000000    71.40000000    24.59000000
   N     90.24000000    72.24000000    22.81000000
   C     88.98000000    72.28000000    22.09000000
   H     88.25500000    72.86200000    22.65900000
   H     89.13200000    72.74300000    21.11500000
   H     88.60500000    71.26500000    21.95600000
   H     90.43000000    71.45000000    23.40000000
  Ca     97.25000000    75.57000000    24.44000000
   O     97.35000000    78.12000000    24.88000000
   H     96.84000000    78.93000000    24.87000000
   H     98.01000000    78.25000000    25.56000000
   O     98.40000000    74.14000000    22.24000000
   H     97.82000000    73.51000000    21.80000000
   H     98.63000000    74.77000000    21.55000000
   O     96.62000000    76.92000000    22.17000000
   H     95.96000000    76.58000000    21.55000000
   H     96.47000000    77.87000000    22.18000000
   O     98.91000000    74.06000000    25.87000000
   H     99.25000000    73.25000000    26.26000000
   H     99.61000000    74.69000000    26.00000000
   O     94.70000000    76.75000000    24.70000000
   H     94.08000000    76.68000000    23.97000000
   H     94.20000000    77.18000000    25.39000000

Ca 1.00



