%chk=loop3.apoCaM-CA-Ng.Init293.run37.water4.chk
%nprocshared=20
%mem=10GB
%nosave
#b3lyp/svp scf=(tight,noincore,xqc) Test 
#IOP(5/87=12) Density=Current Pop=(MK,readradii) iop(6/33=2) iop(6/42=6)

loop3.apoCaM-CA-Ng.Init293.run37.water4 

   0  1 
   C     27.76000000    68.00000000    75.87000000
   C     26.96000000    68.52000000    74.69000000
   O     26.86000000    67.74000000    73.74000000
   H     28.66100000    68.60200000    75.99100000
   H     27.15700000    68.06400000    76.77500000
   H     28.03900000    66.96100000    75.69100000
   N     26.34000000    69.71000000    74.72000000
   C     25.57000000    70.32000000    73.66000000
   C     24.09000000    70.26000000    73.99000000
   O     23.67000000    70.36000000    75.14000000
   C     26.03000000    71.76000000    73.39000000
   C     25.35000000    72.42000000    72.20000000
   O     25.67000000    73.61000000    71.98000000
   O     24.60000000    71.81000000    71.41000000
   H     26.40000000    70.29000000    75.54000000
   H     25.77000000    69.72000000    72.78000000
   H     27.10000000    71.69000000    73.21000000
   H     25.80000000    72.33000000    74.28000000
   N     23.26000000    70.12000000    72.96000000
   C     21.82000000    69.93000000    72.97000000
   C     20.91000000    70.96000000    73.63000000
   O     19.72000000    71.06000000    73.32000000
   C     21.55000000    68.48000000    73.35000000
   C     20.17000000    67.91000000    73.05000000
   C     20.08000000    66.39000000    73.21000000
   C     20.52000000    65.72000000    71.91000000
   N     20.79000000    64.29000000    72.10000000
   H     23.62000000    70.28000000    72.03000000
   H     21.56000000    70.09000000    71.92000000
   H     21.76000000    68.33000000    74.41000000
   H     22.33000000    67.90000000    72.88000000
   H     19.90000000    68.18000000    72.03000000
   H     19.39000000    68.28000000    73.72000000
   H     19.02000000    66.22000000    73.42000000
   H     20.73000000    65.99000000    73.98000000
   H     21.34000000    66.28000000    71.45000000
   H     19.70000000    65.88000000    71.21000000
   H     20.18000000    63.75000000    72.70000000
   H     21.04000000    63.84000000    71.23000000
   H     21.57000000    64.27000000    72.74000000
   N     21.48000000    71.76000000    74.52000000
   C     20.86000000    72.97000000    75.03000000
   C     21.51000000    74.14000000    74.31000000
   O     22.67000000    74.46000000    74.56000000
   C     21.09000000    73.08000000    76.54000000
   C     20.55000000    74.33000000    77.21000000
   O     21.16000000    74.83000000    78.18000000
   O     19.51000000    74.84000000    76.75000000
   H     22.45000000    71.54000000    74.69000000
   H     19.80000000    73.05000000    74.83000000
   H     22.16000000    72.95000000    76.71000000
   H     20.61000000    72.27000000    77.10000000
   N     20.73000000    74.73000000    73.41000000
   C     21.16000000    75.76000000    72.48000000
   C     21.37000000    77.08000000    73.21000000
   O     20.42000000    77.84000000    73.40000000
   H     19.78000000    74.41000000    73.24000000
   H     20.51000000    76.07000000    71.66000000
   H     22.14000000    75.62000000    72.01000000
   N     22.59000000    77.42000000    73.63000000
   C     22.95000000    78.58000000    74.41000000
   C     23.89000000    79.48000000    73.61000000
   O     23.95000000    80.67000000    73.91000000
   C     23.67000000    78.12000000    75.67000000
   C     22.80000000    77.20000000    76.52000000
   N     23.30000000    76.09000000    77.06000000
   O     21.61000000    77.45000000    76.71000000
   H     23.29000000    76.70000000    73.53000000
   H     22.08000000    79.21000000    74.60000000
   H     23.86000000    79.00000000    76.29000000
   H     24.64000000    77.65000000    75.47000000
   H     24.21000000    75.76000000    76.78000000
   H     22.63000000    75.48000000    77.51000000
   N     24.58000000    78.97000000    72.59000000
   C     25.19000000    79.79000000    71.57000000
   C     26.43000000    80.52000000    72.08000000
   O     27.30000000    79.99000000    72.76000000
   H     24.40000000    78.00000000    72.36000000
   H     24.49000000    80.54000000    71.19000000
   H     25.41000000    79.13000000    70.74000000
   N     26.50000000    81.80000000    71.69000000
   C     27.39000000    82.83000000    72.18000000
   C     27.27000000    83.15000000    73.67000000
   O     27.87000000    84.12000000    74.11000000
   C     28.83000000    82.69000000    71.69000000
   C     28.78000000    82.22000000    70.26000000
   C     29.13000000    80.91000000    69.89000000
   C     28.32000000    83.15000000    69.32000000
   C     29.00000000    80.53000000    68.55000000
   C     28.21000000    82.76000000    67.98000000
   C     28.57000000    81.46000000    67.58000000
   O     28.53000000    81.01000000    66.29000000
   H     25.87000000    82.01000000    70.93000000
   H     27.01000000    83.68000000    71.62000000
   H     29.32000000    81.92000000    72.30000000
   H     29.35000000    83.65000000    71.70000000
   H     29.62000000    80.26000000    70.59000000
   H     27.95000000    84.12000000    69.62000000
   H     29.32000000    79.58000000    68.15000000
   H     27.91000000    83.47000000    67.23000000
   H     28.25000000    81.76000000    65.77000000
   N     26.37000000    82.52000000    74.43000000
   C     25.92000000    82.73000000    75.79000000
   C     25.07000000    83.97000000    75.99000000
   O     23.88000000    83.91000000    76.28000000
   C     27.16000000    82.53000000    76.67000000
   C     27.76000000    81.15000000    76.49000000
   C     26.81000000    82.76000000    78.14000000
   C     29.17000000    80.94000000    77.04000000
   H     25.83000000    81.93000000    73.81000000
   H     25.35000000    81.87000000    76.15000000
   H     27.90000000    83.30000000    76.47000000
   H     27.92000000    80.89000000    75.44000000
   H     27.05000000    80.43000000    76.90000000
   H     26.41000000    83.76000000    78.30000000
   H     26.06000000    82.05000000    78.49000000
   H     27.68000000    82.66000000    78.78000000
   H     29.12000000    81.08000000    78.12000000
   H     29.52000000    79.91000000    77.10000000
   H     29.95000000    81.60000000    76.65000000
   N     25.66000000    85.16000000    75.82000000
   C     25.01000000    86.45000000    75.90000000
   C     24.46000000    86.88000000    77.26000000
   O     23.42000000    87.52000000    77.25000000
   C     25.98000000    87.53000000    75.42000000
   O     26.44000000    87.30000000    74.11000000
   H     26.62000000    85.12000000    75.51000000
   H     24.18000000    86.46000000    75.20000000
   H     26.88000000    87.37000000    76.01000000
   H     25.53000000    88.52000000    75.49000000
   H     27.34000000    87.65000000    74.17000000
   N     25.06000000    86.43000000    78.36000000
   C     24.70000000    86.72000000    79.73000000
   C     23.25000000    86.39000000    80.07000000
   O     22.59000000    87.13000000    80.80000000
   C     25.13000000    88.12000000    80.17000000
   H     26.01000000    86.09000000    78.23000000
   H     25.24000000    85.97000000    80.30000000
   H     24.49000000    88.90000000    79.76000000
   H     25.27000000    88.17000000    81.25000000
   H     26.07000000    88.36000000    79.68000000
   N     22.76000000    85.26000000    79.58000000
   C     21.44000000    84.70000000    79.80000000
   C     21.51000000    83.57000000    80.82000000
   O     22.54000000    82.91000000    80.95000000
   C     21.05000000    84.19000000    78.42000000
   H     23.35000000    84.64000000    79.03000000
   H     20.64000000    85.42000000    79.98000000
   H     21.75000000    83.39000000    78.16000000
   H     20.04000000    83.78000000    78.36000000
   H     21.17000000    84.97000000    77.67000000
   N     20.37000000    83.31000000    81.46000000
   C     20.14000000    82.24000000    82.41000000
   C     21.12000000    82.25000000    83.57000000
   O     21.39000000    81.23000000    84.20000000
   C     20.03000000    80.89000000    81.71000000
   C     18.94000000    80.89000000    80.64000000
   C     18.85000000    79.66000000    79.75000000
   O     19.16000000    79.71000000    78.54000000
   O     18.55000000    78.54000000    80.23000000
   H     19.56000000    83.89000000    81.28000000
   H     19.19000000    82.41000000    82.92000000
   H     19.83000000    80.11000000    82.44000000
   H     21.01000000    80.71000000    81.27000000
   H     19.03000000    81.70000000    79.91000000
   H     18.00000000    81.15000000    81.13000000
   N     21.86000000    83.33000000    83.85000000
   C     22.94000000    83.25000000    84.81000000
   H     23.76700000    83.87900000    84.47900000
   H     22.58900000    83.59500000    85.78300000
   H     23.27900000    82.21700000    84.89100000
   H     21.57000000    84.22000000    83.47000000
  Ca     19.54000000    77.10000000    78.31000000
   O     16.96000000    76.73000000    78.29000000
   H     16.41000000    76.49000000    79.03000000
   H     16.39000000    76.61000000    77.52000000
   O     21.64000000    77.94000000    79.78000000
   H     21.98000000    77.29000000    80.39000000
   H     22.26000000    78.67000000    79.83000000
   O     19.27000000    75.67000000    80.57000000
   H     18.38000000    75.34000000    80.71000000
   H     19.84000000    75.00000000    80.94000000
   O     19.03000000    78.48000000    75.89000000
   H     19.30000000    78.19000000    75.02000000
   H     18.11000000    78.72000000    75.77000000

Ca 1.00



