%chk=loop4.apoCaM-CA-Ng.Init295.run41.water2.chk
%nprocshared=20
%mem=10GB
%nosave
#b3lyp/svp scf=(tight,noincore,xqc) Test 
#IOP(5/87=12) Density=Current Pop=(MK,readradii) iop(6/33=2) iop(6/42=6)

loop4.apoCaM-CA-Ng.Init295.run41.water2 

   -3  1 
   C     73.94000000    22.85000000    62.46000000
   C     74.99000000    22.30000000    63.42000000
   O     76.16000000    22.69000000    63.35000000
   H     73.08000000    23.20600000    63.02800000
   H     74.36500000    23.67600000    61.89000000
   H     73.62300000    22.06200000    61.77700000
   N     74.59000000    21.52000000    64.43000000
   C     75.49000000    20.99000000    65.43000000
   C     76.31000000    21.92000000    66.30000000
   O     77.49000000    21.72000000    66.58000000
   C     76.32000000    19.84000000    64.87000000
   C     75.56000000    18.91000000    63.94000000
   O     76.21000000    18.34000000    63.03000000
   O     74.34000000    18.69000000    64.06000000
   H     73.61000000    21.28000000    64.52000000
   H     74.83000000    20.52000000    66.16000000
   H     76.68000000    19.22000000    65.69000000
   H     77.22000000    20.23000000    64.39000000
   N     75.74000000    23.10000000    66.60000000
   C     76.24000000    24.07000000    67.54000000
   C     75.56000000    23.86000000    68.89000000
   O     74.33000000    23.83000000    68.95000000
   C     76.05000000    25.46000000    66.95000000
   C     76.61000000    25.74000000    65.55000000
   C     76.61000000    26.54000000    67.87000000
   C     76.07000000    26.96000000    64.81000000
   H     74.81000000    23.28000000    66.24000000
   H     77.31000000    23.90000000    67.58000000
   H     74.98000000    25.67000000    66.86000000
   H     76.40000000    24.94000000    64.85000000
   H     77.70000000    25.81000000    65.59000000
   H     76.15000000    27.52000000    67.74000000
   H     76.33000000    26.25000000    68.88000000
   H     77.70000000    26.60000000    67.82000000
   H     74.99000000    26.97000000    64.67000000
   H     76.39000000    27.81000000    65.42000000
   H     76.67000000    26.99000000    63.91000000
   N     76.20000000    23.51000000    70.01000000
   C     77.63000000    23.36000000    70.16000000
   C     78.17000000    22.03000000    69.67000000
   O     79.29000000    21.99000000    69.16000000
   C     78.15000000    23.55000000    71.58000000
   C     77.34000000    24.52000000    72.44000000
   O     76.29000000    24.02000000    72.90000000
   O     77.70000000    25.70000000    72.66000000
   H     75.64000000    23.48000000    70.85000000
   H     78.11000000    24.07000000    69.48000000
   H     79.19000000    23.88000000    71.57000000
   H     78.06000000    22.59000000    72.09000000
   N     77.37000000    20.98000000    69.84000000
   C     77.75000000    19.66000000    69.38000000
   C     78.93000000    19.00000000    70.08000000
   O     79.00000000    18.85000000    71.30000000
   H     76.44000000    21.12000000    70.21000000
   H     77.92000000    19.77000000    68.31000000
   H     76.88000000    19.00000000    69.47000000
   N     79.91000000    18.46000000    69.36000000
   C     80.93000000    17.61000000    69.95000000
   C     82.32000000    17.95000000    69.45000000
   O     83.31000000    17.32000000    69.84000000
   C     80.50000000    16.16000000    69.79000000
   C     79.90000000    15.73000000    68.46000000
   O     80.63000000    15.97000000    67.48000000
   O     78.69000000    15.47000000    68.27000000
   H     79.82000000    18.60000000    68.36000000
   H     81.06000000    17.68000000    71.03000000
   H     79.79000000    16.04000000    70.60000000
   H     81.33000000    15.49000000    70.03000000
   N     82.45000000    18.93000000    68.55000000
   C     83.66000000    19.61000000    68.13000000
   C     84.38000000    18.95000000    66.96000000
   O     85.13000000    19.66000000    66.30000000
   H     81.57000000    19.26000000    68.21000000
   H     84.42000000    19.47000000    68.89000000
   H     83.51000000    20.67000000    67.92000000
   N     84.07000000    17.69000000    66.62000000
   C     84.54000000    17.05000000    65.42000000
   C     84.37000000    17.79000000    64.10000000
   O     85.30000000    18.02000000    63.34000000
   C     85.99000000    16.60000000    65.52000000
   C     86.40000000    15.49000000    66.50000000
   C     87.88000000    15.32000000    66.81000000
   N     88.20000000    14.34000000    67.65000000
   O     88.75000000    16.01000000    66.27000000
   H     83.48000000    17.20000000    67.28000000
   H     84.05000000    16.07000000    65.42000000
   H     86.62000000    17.46000000    65.75000000
   H     86.36000000    16.31000000    64.54000000
   H     86.04000000    14.54000000    66.12000000
   H     85.98000000    15.75000000    67.47000000
   H     87.54000000    13.69000000    68.06000000
   H     89.19000000    14.27000000    67.87000000
   N     83.20000000    18.33000000    63.75000000
   C     82.92000000    19.20000000    62.61000000
   C     82.87000000    18.56000000    61.23000000
   O     82.36000000    17.45000000    61.08000000
   C     81.64000000    19.98000000    62.85000000
   C     80.39000000    19.11000000    62.65000000
   C     81.63000000    20.71000000    64.19000000
   H     82.37000000    18.13000000    64.29000000
   H     83.82000000    19.82000000    62.62000000
   H     81.62000000    20.70000000    62.03000000
   H     79.44000000    19.61000000    62.88000000
   H     80.29000000    18.89000000    61.59000000
   H     80.54000000    18.24000000    63.29000000
   H     82.51000000    21.32000000    64.40000000
   H     80.72000000    21.32000000    64.15000000
   H     81.63000000    20.04000000    65.05000000
   N     83.28000000    19.30000000    60.19000000
   C     83.16000000    18.85000000    58.82000000
   C     82.51000000    19.89000000    57.92000000
   O     82.76000000    21.07000000    58.14000000
   C     84.55000000    18.46000000    58.32000000
   C     84.59000000    17.98000000    56.88000000
   N     83.90000000    16.88000000    56.58000000
   O     85.27000000    18.56000000    56.03000000
   H     83.66000000    20.23000000    60.31000000
   H     82.52000000    17.97000000    58.77000000
   H     84.88000000    17.58000000    58.86000000
   H     85.35000000    19.20000000    58.38000000
   H     83.38000000    16.40000000    57.30000000
   H     84.04000000    16.58000000    55.62000000
   N     81.71000000    19.49000000    56.92000000
   C     81.03000000    20.40000000    56.03000000
   C     79.59000000    19.93000000    55.87000000
   O     79.13000000    19.81000000    54.74000000
   C     81.90000000    20.52000000    54.78000000
   C     81.81000000    21.73000000    53.89000000
   C     82.45000000    22.96000000    54.08000000
   C     80.95000000    21.65000000    52.79000000
   C     82.47000000    24.00000000    53.14000000
   C     81.00000000    22.63000000    51.79000000
   C     81.75000000    23.82000000    51.94000000
   O     81.73000000    24.81000000    51.00000000
   H     81.64000000    18.49000000    56.80000000
   H     80.92000000    21.39000000    56.48000000
   H     81.74000000    19.61000000    54.21000000
   H     82.91000000    20.44000000    55.20000000
   H     83.05000000    22.96000000    54.98000000
   H     80.42000000    20.75000000    52.52000000
   H     83.07000000    24.88000000    53.29000000
   H     80.44000000    22.54000000    50.88000000
   H     81.01000000    24.84000000    50.36000000
   N     78.89000000    19.56000000    56.95000000
   C     77.59000000    18.93000000    56.91000000
   C     76.46000000    19.84000000    56.43000000
   O     75.59000000    19.40000000    55.68000000
   C     77.38000000    18.19000000    58.23000000
   C     76.58000000    16.90000000    58.03000000
   C     76.44000000    16.10000000    59.31000000
   O     75.96000000    16.59000000    60.36000000
   O     76.78000000    14.90000000    59.27000000
   H     79.28000000    19.75000000    57.86000000
   H     77.77000000    18.20000000    56.12000000
   H     76.73000000    18.75000000    58.90000000
   H     78.35000000    17.91000000    58.64000000
   H     77.12000000    16.33000000    57.26000000
   H     75.62000000    17.10000000    57.57000000
   N     76.38000000    21.13000000    56.75000000
   C     76.94000000    21.66000000    57.98000000
   C     78.12000000    22.58000000    57.73000000
   O     78.46000000    22.79000000    56.57000000
   C     75.81000000    22.39000000    58.70000000
   C     74.48000000    21.66000000    58.84000000
   C     74.49000000    20.29000000    59.51000000
   O     73.84000000    19.33000000    59.04000000
   O     75.20000000    20.20000000    60.53000000
   H     75.63000000    21.66000000    56.33000000
   H     77.32000000    20.82000000    58.56000000
   H     75.58000000    23.32000000    58.18000000
   H     76.22000000    22.71000000    59.66000000
   H     74.09000000    21.60000000    57.82000000
   H     73.82000000    22.27000000    59.45000000
   N     78.59000000    23.29000000    58.77000000
   C     79.66000000    24.26000000    58.80000000
   H     80.52600000    23.86200000    58.27100000
   H     79.33100000    25.18000000    58.31600000
   H     79.93200000    24.47000000    59.83400000
   H     78.15000000    23.07000000    59.65000000
  Ca     74.09000000    18.09000000    61.36000000
   O     74.19000000    15.72000000    62.68000000
   H     74.34000000    15.47000000    63.59000000
   H     74.72000000    15.10000000    62.17000000
   O     72.86000000    16.51000000    59.58000000
   H     72.89000000    15.90000000    58.85000000
   H     71.96000000    16.45000000    59.91000000

Ca 1.00



