%chk=loop1.apoCaM-CA-Ng.Init293.run48.water6.chk
%nprocshared=20
%mem=10GB
%nosave
#b3lyp/svp scf=(tight,noincore,xqc) Test 
#IOP(5/87=12) Density=Current Pop=(MK,readradii) iop(6/33=2) iop(6/42=6)

loop1.apoCaM-CA-Ng.Init293.run48.water6 

   0  1 
   C     40.60000000    70.23000000   104.86000000
   C     40.42000000    69.22000000   105.99000000
   O     41.39000000    68.71000000   106.55000000
   H     41.64200000    70.23500000   104.54100000
   H     39.96400000    69.95200000   104.01900000
   H     40.32400000    71.22400000   105.21300000
   N     39.20000000    69.07000000   106.49000000
   C     38.92000000    68.26000000   107.66000000
   C     38.92000000    66.75000000   107.47000000
   O     38.92000000    65.99000000   108.43000000
   C     37.62000000    68.76000000   108.27000000
   C     36.44000000    68.91000000   107.32000000
   O     36.41000000    68.18000000   106.30000000
   O     35.47000000    69.68000000   107.51000000
   H     38.42000000    69.22000000   105.87000000
   H     39.76000000    68.53000000   108.31000000
   H     37.85000000    69.75000000   108.65000000
   H     37.25000000    68.10000000   109.05000000
   N     39.11000000    66.25000000   106.24000000
   C     39.21000000    64.83000000   105.96000000
   C     40.69000000    64.48000000   106.00000000
   O     41.54000000    65.10000000   105.37000000
   C     38.47000000    64.55000000   104.66000000
   C     38.42000000    63.09000000   104.22000000
   C     39.64000000    62.64000000   103.41000000
   C     39.52000000    61.12000000   103.47000000
   N     40.74000000    60.47000000   102.97000000
   H     39.25000000    66.88000000   105.46000000
   H     38.70000000    64.28000000   106.75000000
   H     38.79000000    65.16000000   103.82000000
   H     37.41000000    64.66000000   104.88000000
   H     37.62000000    63.05000000   103.48000000
   H     38.23000000    62.42000000   105.05000000
   H     40.50000000    62.95000000   104.00000000
   H     39.72000000    63.13000000   102.44000000
   H     38.71000000    60.81000000   102.80000000
   H     39.39000000    60.82000000   104.51000000
   H     40.60000000    59.47000000   102.96000000
   H     40.95000000    60.75000000   102.02000000
   H     41.49000000    60.67000000   103.62000000
   N     41.17000000    63.43000000   106.68000000
   C     40.57000000    62.76000000   107.82000000
   C     41.63000000    62.51000000   108.88000000
   O     41.90000000    61.33000000   109.10000000
   C     39.83000000    61.47000000   107.50000000
   C     39.06000000    60.99000000   108.72000000
   O     38.62000000    61.75000000   109.62000000
   O     38.79000000    59.78000000   108.81000000
   H     42.12000000    63.17000000   106.49000000
   H     39.87000000    63.53000000   108.15000000
   H     40.46000000    60.69000000   107.07000000
   H     39.18000000    61.76000000   106.67000000
   N     42.16000000    63.47000000   109.65000000
   C     42.05000000    64.91000000   109.56000000
   C     42.61000000    65.61000000   110.79000000
   O     42.58000000    65.11000000   111.91000000
   H     42.68000000    63.24000000   110.48000000
   H     40.98000000    65.10000000   109.48000000
   H     42.62000000    65.27000000   108.70000000
   N     42.98000000    66.89000000   110.69000000
   C     42.77000000    67.69000000   109.50000000
   C     42.13000000    68.99000000   109.96000000
   O     41.73000000    69.20000000   111.10000000
   C     44.09000000    67.87000000   108.77000000
   C     45.27000000    68.18000000   109.68000000
   O     45.12000000    69.08000000   110.53000000
   O     46.34000000    67.56000000   109.48000000
   H     43.34000000    67.31000000   111.53000000
   H     42.06000000    67.22000000   108.81000000
   H     44.02000000    68.67000000   108.02000000
   H     44.30000000    66.89000000   108.34000000
   N     41.95000000    69.89000000   108.98000000
   C     41.52000000    71.25000000   109.27000000
   C     42.56000000    72.24000000   109.76000000
   O     42.33000000    73.44000000   109.91000000
   H     42.07000000    69.52000000   108.05000000
   H     40.62000000    71.45000000   109.85000000
   H     41.18000000    71.54000000   108.27000000
   N     43.81000000    71.80000000   109.94000000
   C     45.01000000    72.60000000   109.88000000
   C     45.67000000    72.55000000   108.50000000
   O     45.63000000    71.51000000   107.85000000
   C     45.94000000    72.11000000   110.99000000
   C     46.69000000    73.28000000   111.62000000
   O     46.81000000    71.04000000   110.69000000
   H     43.94000000    70.80000000   110.02000000
   H     44.81000000    73.63000000   110.14000000
   H     45.35000000    71.74000000   111.83000000
   H     46.31000000    70.24000000   110.52000000
   H     46.02000000    74.07000000   111.96000000
   H     47.17000000    72.93000000   112.54000000
   H     47.44000000    73.70000000   110.95000000
   N     46.18000000    73.68000000   108.01000000
   C     46.73000000    73.67000000   106.66000000
   C     47.98000000    74.54000000   106.72000000
   O     47.91000000    75.69000000   106.29000000
   C     45.59000000    74.11000000   105.74000000
   C     46.03000000    74.12000000   104.28000000
   C     44.91000000    75.43000000   106.08000000
   C     46.43000000    72.76000000   103.72000000
   H     46.05000000    74.53000000   108.54000000
   H     47.01000000    72.66000000   106.38000000
   H     44.81000000    73.36000000   105.84000000
   H     46.93000000    74.72000000   104.15000000
   H     45.18000000    74.50000000   103.71000000
   H     45.59000000    76.26000000   106.26000000
   H     44.24000000    75.73000000   105.27000000
   H     44.44000000    75.36000000   107.06000000
   H     45.65000000    72.01000000   103.86000000
   H     46.60000000    72.89000000   102.65000000
   H     47.42000000    72.45000000   104.06000000
   N     49.12000000    73.97000000   107.09000000
   C     50.40000000    74.65000000   107.12000000
   C     51.32000000    74.22000000   105.99000000
   O     52.23000000    74.97000000   105.63000000
   C     51.07000000    74.69000000   108.49000000
   C     51.56000000    73.34000000   109.02000000
   O     50.31000000    75.43000000   109.41000000
   H     49.05000000    72.98000000   107.29000000
   H     50.18000000    75.69000000   106.87000000
   H     51.97000000    75.28000000   108.34000000
   H     50.07000000    76.27000000   109.01000000
   H     51.92000000    73.44000000   110.04000000
   H     50.71000000    72.66000000   109.08000000
   H     52.30000000    72.97000000   108.31000000
   N     51.04000000    73.14000000   105.26000000
   C     51.74000000    72.58000000   104.11000000
   C     53.14000000    72.09000000   104.44000000
   O     53.68000000    72.42000000   105.49000000
   C     51.69000000    73.53000000   102.92000000
   C     50.26000000    73.88000000   102.54000000
   O     52.23000000    72.85000000   101.82000000
   H     50.19000000    72.63000000   105.45000000
   H     51.12000000    71.71000000   103.88000000
   H     52.22000000    74.46000000   103.12000000
   H     52.02000000    73.27000000   100.98000000
   H     49.68000000    72.97000000   102.47000000
   H     49.83000000    74.62000000   103.22000000
   H     50.30000000    74.38000000   101.57000000
   N     53.76000000    71.28000000   103.57000000
   C     55.17000000    70.97000000   103.56000000
   C     55.48000000    69.60000000   104.14000000
   O     56.56000000    69.45000000   104.72000000
   C     55.90000000    71.30000000   102.26000000
   C     57.43000000    71.23000000   102.35000000
   C     57.98000000    72.11000000   103.46000000
   C     57.49000000    73.55000000   103.32000000
   N     57.91000000    74.35000000   104.47000000
   H     53.19000000    70.97000000   102.80000000
   H     55.59000000    71.68000000   104.28000000
   H     55.73000000    72.34000000   102.01000000
   H     55.58000000    70.70000000   101.41000000
   H     57.74000000    71.58000000   101.37000000
   H     57.78000000    70.22000000   102.57000000
   H     59.06000000    72.15000000   103.35000000
   H     57.71000000    71.62000000   104.40000000
   H     56.40000000    73.54000000   103.36000000
   H     57.84000000    74.02000000   102.40000000
   H     58.92000000    74.40000000   104.44000000
   H     57.55000000    75.30000000   104.47000000
   H     57.57000000    73.97000000   105.34000000
   N     54.70000000    68.52000000   104.05000000
   C     53.51000000    68.24000000   103.27000000
   C     53.44000000    68.78000000   101.85000000
   O     52.55000000    69.56000000   101.52000000
   C     52.24000000    68.50000000   104.07000000
   C     52.11000000    67.84000000   105.44000000
   C     50.75000000    68.07000000   106.07000000
   O     49.81000000    67.37000000   105.63000000
   O     50.64000000    68.88000000   107.02000000
   H     55.00000000    67.79000000   104.67000000
   H     53.60000000    67.16000000   103.21000000
   H     51.40000000    68.15000000   103.48000000
   H     52.02000000    69.56000000   104.21000000
   H     52.83000000    68.39000000   106.06000000
   H     52.42000000    66.79000000   105.40000000
   N     54.46000000    68.53000000   101.03000000
   C     54.60000000    68.93000000    99.64000000
   H     55.65700000    68.95000000    99.37300000
   H     54.07800000    68.21700000    99.00200000
   H     54.17200000    69.92300000    99.50200000
   H     55.11000000    67.80000000   101.26000000
  Ca     48.34000000    67.38000000   107.92100000
   O     46.26000000    66.42000000   106.32100000
   H     45.35000000    66.65000000   106.15100000
   H     46.20000000    65.63000000   106.85100000
   O     49.31000000    67.01000000   110.46100000
   H     49.91000000    66.46000000   110.96100000
   H     48.56000000    67.15000000   111.04100000
   O     47.72000000    64.78000000   107.92100000
   H     47.08000000    64.39000000   108.51100000
   H     48.07000000    64.05000000   107.42100000
   O     48.57000000    69.75000000   109.18100000
   H     49.12000000    70.38000000   109.64100000
   H     47.68000000    70.09000000   109.27100000
   O     46.84000000    69.42000000   106.71100000
   H     46.41000000    69.22000000   105.88100000
   H     46.32000000    70.14000000   107.07100000
   O     50.59000000    65.45000000   108.02100000
   H     50.50000000    64.57000000   108.39100000
   H     51.53000000    65.57000000   107.91100000

Ca 1.00



