%chk=loop2.holoCaM-CaMKII.run92.water2.chk
%nprocshared=20
%mem=10GB
%nosave
#b3lyp/svp scf=(tight,noincore,xqc) Test 
#IOP(5/87=12) Density=Current Pop=(MK,readradii) iop(6/33=2) iop(6/42=6)

loop2.holoCaM-CaMKII.run92.water2 

   -2  1 
   C     54.92000000    28.88000000    -9.29000000
   C     54.91000000    27.52000000    -9.97000000
   O     55.90000000    26.80000000    -9.85000000
   H     54.66900000    29.65100000   -10.01800000
   H     54.18600000    28.88900000    -8.48400000
   H     55.91200000    29.07500000    -8.88200000
   N     53.91000000    27.22000000   -10.80000000
   C     53.86000000    26.02000000   -11.61000000
   C     54.73000000    26.32000000   -12.83000000
   O     54.36000000    26.95000000   -13.82000000
   C     52.40000000    25.74000000   -11.92000000
   C     52.23000000    24.41000000   -12.64000000
   O     53.17000000    23.59000000   -12.66000000
   O     51.20000000    24.33000000   -13.35000000
   H     53.19000000    27.93000000   -10.87000000
   H     54.42000000    25.26000000   -11.07000000
   H     51.99000000    26.56000000   -12.51000000
   H     51.78000000    25.59000000   -11.03000000
   N     55.98000000    25.87000000   -12.72000000
   C     57.13000000    26.15000000   -13.55000000
   C     57.17000000    25.55000000   -14.95000000
   O     57.83000000    26.14000000   -15.81000000
   C     58.37000000    25.75000000   -12.75000000
   H     56.19000000    25.41000000   -11.84000000
   H     57.22000000    27.23000000   -13.64000000
   H     59.27000000    25.83000000   -13.36000000
   H     58.36000000    26.31000000   -11.81000000
   H     58.18000000    24.77000000   -12.31000000
   N     56.57000000    24.37000000   -15.08000000
   C     56.36000000    23.68000000   -16.34000000
   C     54.93000000    23.79000000   -16.87000000
   O     54.81000000    23.70000000   -18.09000000
   C     56.66000000    22.19000000   -16.19000000
   C     55.94000000    21.29000000   -15.20000000
   O     56.00000000    20.05000000   -15.34000000
   O     55.40000000    21.87000000   -14.23000000
   H     55.98000000    24.05000000   -14.32000000
   H     56.98000000    24.12000000   -17.11000000
   H     57.67000000    21.90000000   -15.91000000
   H     56.55000000    21.73000000   -17.17000000
   N     53.93000000    24.13000000   -16.05000000
   C     52.58000000    24.49000000   -16.44000000
   C     51.69000000    23.25000000   -16.40000000
   O     50.83000000    23.15000000   -17.27000000
   H     54.13000000    24.05000000   -15.07000000
   H     52.56000000    24.87000000   -17.46000000
   H     52.01000000    25.18000000   -15.81000000
   N     51.92000000    22.28000000   -15.51000000
   C     51.16000000    21.05000000   -15.52000000
   C     49.93000000    21.13000000   -14.63000000
   O     49.22000000    20.13000000   -14.57000000
   C     52.05000000    19.81000000   -15.47000000
   C     52.40000000    19.35000000   -14.06000000
   N     52.37000000    18.09000000   -13.63000000
   O     52.74000000    20.16000000   -13.20000000
   H     52.63000000    22.39000000   -14.80000000
   H     50.80000000    21.00000000   -16.55000000
   H     52.97000000    19.94000000   -16.03000000
   H     51.60000000    18.95000000   -15.98000000
   H     52.14000000    17.39000000   -14.32000000
   H     52.76000000    17.81000000   -12.75000000
   N     49.59000000    22.28000000   -14.04000000
   C     48.45000000    22.39000000   -13.15000000
   C     48.54000000    21.65000000   -11.83000000
   O     47.60000000    21.81000000   -11.06000000
   H     50.24000000    23.05000000   -14.03000000
   H     47.66000000    22.00000000   -13.79000000
   H     48.25000000    23.44000000   -12.95000000
   N     49.61000000    20.94000000   -11.44000000
   C     49.83000000    20.63000000   -10.04000000
   C     51.15000000    21.21000000    -9.55000000
   O     52.18000000    21.03000000   -10.20000000
   C     49.78000000    19.14000000    -9.74000000
   C     48.42000000    18.57000000    -9.32000000
   O     50.35000000    18.43000000   -10.82000000
   H     50.37000000    20.67000000   -12.04000000
   H     49.02000000    21.08000000    -9.47000000
   H     50.45000000    18.95000000    -8.91000000
   H     51.31000000    18.37000000   -10.75000000
   H     47.65000000    18.90000000   -10.01000000
   H     48.56000000    17.49000000    -9.40000000
   H     48.16000000    18.93000000    -8.32000000
   N     51.19000000    21.89000000    -8.40000000
   C     52.35000000    22.39000000    -7.69000000
   C     53.06000000    21.13000000    -7.21000000
   O     52.43000000    20.29000000    -6.58000000
   C     51.89000000    23.35000000    -6.60000000
   C     51.23000000    24.55000000    -7.28000000
   C     53.05000000    23.63000000    -5.65000000
   C     50.73000000    25.60000000    -6.29000000
   H     50.29000000    21.99000000    -7.94000000
   H     52.97000000    22.90000000    -8.43000000
   H     51.14000000    22.84000000    -6.00000000
   H     50.36000000    24.07000000    -7.73000000
   H     51.88000000    24.99000000    -8.03000000
   H     53.30000000    22.70000000    -5.14000000
   H     53.90000000    24.22000000    -5.99000000
   H     52.63000000    24.21000000    -4.83000000
   H     51.55000000    26.03000000    -5.71000000
   H     50.17000000    26.36000000    -6.84000000
   H     50.07000000    25.00000000    -5.67000000
   N     54.39000000    21.05000000    -7.27000000
   C     55.21000000    20.00000000    -6.69000000
   C     55.95000000    20.62000000    -5.51000000
   O     56.01000000    21.84000000    -5.34000000
   C     56.08000000    19.47000000    -7.83000000
   C     55.33000000    18.96000000    -9.04000000
   O     55.17000000    17.74000000    -9.28000000
   O     54.99000000    19.76000000    -9.94000000
   H     54.89000000    21.74000000    -7.81000000
   H     54.50000000    19.24000000    -6.35000000
   H     56.63000000    18.64000000    -7.39000000
   H     56.75000000    20.20000000    -8.28000000
   N     56.62000000    19.82000000    -4.69000000
   C     57.42000000    20.33000000    -3.59000000
   C     58.41000000    21.44000000    -3.92000000
   O     58.36000000    22.46000000    -3.24000000
   C     57.92000000    19.25000000    -2.63000000
   C     58.68000000    19.81000000    -1.45000000
   C     60.07000000    19.91000000    -1.41000000
   C     57.92000000    20.22000000    -0.34000000
   C     60.67000000    20.55000000    -0.31000000
   C     58.53000000    20.85000000     0.75000000
   C     59.92000000    21.00000000     0.78000000
   H     56.51000000    18.84000000    -4.91000000
   H     56.62000000    20.83000000    -3.04000000
   H     58.59000000    18.59000000    -3.17000000
   H     57.06000000    18.67000000    -2.30000000
   H     60.67000000    19.59000000    -2.25000000
   H     56.85000000    20.18000000    -0.48000000
   H     61.75000000    20.54000000    -0.27000000
   H     57.91000000    21.24000000     1.54000000
   H     60.46000000    21.50000000     1.57000000
   N     59.23000000    21.39000000    -4.97000000
   C     60.13000000    22.45000000    -5.36000000
   C     59.47000000    23.77000000    -5.76000000
   O     60.10000000    24.81000000    -5.64000000
   C     61.01000000    21.87000000    -6.46000000
   C     61.06000000    20.39000000    -6.10000000
   C     59.59000000    20.20000000    -5.72000000
   H     60.80000000    22.73000000    -4.55000000
   H     60.49000000    21.98000000    -7.42000000
   H     62.01000000    22.29000000    -6.51000000
   H     61.25000000    19.76000000    -6.97000000
   H     61.73000000    20.23000000    -5.26000000
   H     58.89000000    20.05000000    -6.54000000
   H     59.43000000    19.39000000    -5.00000000
   N     58.20000000    23.67000000    -6.16000000
   C     57.39000000    24.81000000    -6.54000000
   C     56.67000000    25.37000000    -5.32000000
   O     56.38000000    26.56000000    -5.26000000
   C     56.42000000    24.34000000    -7.62000000
   C     57.04000000    23.79000000    -8.90000000
   C     56.01000000    23.32000000    -9.92000000
   O     56.36000000    23.21000000   -11.11000000
   O     54.85000000    22.96000000    -9.63000000
   H     57.75000000    22.77000000    -6.20000000
   H     57.97000000    25.64000000    -6.94000000
   H     55.72000000    25.11000000    -7.94000000
   H     55.80000000    23.56000000    -7.16000000
   H     57.61000000    22.91000000    -8.61000000
   H     57.61000000    24.58000000    -9.38000000
   N     56.41000000    24.55000000    -4.30000000
   C     55.99000000    25.02000000    -2.99000000
   H     54.96100000    24.71000000    -2.80600000
   H     56.63900000    24.59400000    -2.22500000
   H     56.05300000    26.10800000    -2.95600000
   H     56.37000000    23.55000000    -4.42000000
  Ca     54.43000000    21.41000000   -11.71200000
   O     57.65000000    21.13000000   -12.24200000
   H     57.49000000    22.07000000   -12.18200000
   H     57.56000000    20.93000000   -13.17200000
   O     55.33000000    19.21000000   -13.04200000
   H     56.15000000    18.81000000   -12.74200000
   H     55.47000000    19.35000000   -13.98200000

Ca 1.00



