%chk=loop2.holoCaM-CaMKII.run98.water1.chk
%nprocshared=20
%mem=10GB
%nosave
#b3lyp/svp scf=(tight,noincore,xqc) Test 
#IOP(5/87=12) Density=Current Pop=(MK,readradii) iop(6/33=2) iop(6/42=6)

loop2.holoCaM-CaMKII.run98.water1 

   -2  1 
   C     38.46000000    21.51000000   -24.52900000
   C     38.69000000    20.06000000   -24.93900000
   O     39.81000000    19.71000000   -25.29900000
   H     37.48100000    21.60300000   -24.06000000
   H     39.23100000    21.81500000   -23.82200000
   H     38.50200000    22.14900000   -25.41100000
   N     37.69000000    19.19000000   -24.81900000
   C     37.89000000    17.78000000   -25.10900000
   C     38.08000000    17.54000000   -26.59900000
   O     37.16000000    17.86000000   -27.35900000
   C     36.57000000    17.08000000   -24.77900000
   C     36.58000000    15.57000000   -24.66900000
   O     37.64000000    14.96000000   -24.93900000
   O     35.62000000    14.92000000   -24.18900000
   H     36.86000000    19.50000000   -24.34900000
   H     38.74000000    17.47000000   -24.50900000
   H     35.76000000    17.36000000   -25.44900000
   H     36.37000000    17.36000000   -23.73900000
   N     39.21000000    16.98000000   -27.02900000
   C     39.53000000    16.70000000   -28.40900000
   C     38.89000000    15.50000000   -29.08900000
   O     38.81000000    15.53000000   -30.31900000
   C     41.01000000    16.96000000   -28.68900000
   H     39.75000000    16.53000000   -26.29900000
   H     39.04000000    17.55000000   -28.88900000
   H     41.44000000    17.66000000   -27.97900000
   H     41.65000000    16.08000000   -28.58900000
   H     41.06000000    17.55000000   -29.59900000
   N     38.31000000    14.55000000   -28.34900000
   C     37.59000000    13.42000000   -28.89900000
   C     36.12000000    13.44000000   -28.51900000
   O     35.30000000    12.60000000   -28.88900000
   C     38.29000000    12.07000000   -28.80900000
   C     38.56000000    11.63000000   -27.37900000
   O     38.60000000    12.47000000   -26.45900000
   O     38.68000000    10.41000000   -27.11900000
   H     38.62000000    14.45000000   -27.39900000
   H     37.44000000    13.50000000   -29.97900000
   H     39.24000000    12.10000000   -29.31900000
   H     37.76000000    11.22000000   -29.24900000
   N     35.74000000    14.42000000   -27.68900000
   C     34.46000000    14.61000000   -27.03900000
   C     33.98000000    13.36000000   -26.31900000
   O     32.77000000    13.20000000   -26.19900000
   H     36.48000000    15.02000000   -27.34900000
   H     33.68000000    14.86000000   -27.74900000
   H     34.61000000    15.47000000   -26.36900000
   N     34.89000000    12.55000000   -25.77900000
   C     34.47000000    11.30000000   -25.17900000
   C     33.88000000    11.57000000   -23.79900000
   O     33.22000000    10.69000000   -23.25900000
   C     35.67000000    10.36000000   -25.04900000
   C     36.69000000    10.71000000   -23.97900000
   N     37.14000000     9.76000000   -23.15900000
   O     37.06000000    11.85000000   -23.70900000
   H     35.86000000    12.83000000   -25.67900000
   H     33.68000000    10.80000000   -25.74900000
   H     36.25000000    10.40000000   -25.96900000
   H     35.33000000     9.34000000   -24.89900000
   H     37.08000000     8.79000000   -23.43900000
   H     37.55000000    10.16000000   -22.32900000
   N     34.10000000    12.76000000   -23.24900000
   C     33.69000000    13.16000000   -21.91900000
   C     34.66000000    12.80000000   -20.79900000
   O     34.20000000    12.54000000   -19.68900000
   H     34.61000000    13.46000000   -23.76900000
   H     32.68000000    12.79000000   -21.72900000
   H     33.63000000    14.24000000   -21.98900000
   N     35.97000000    12.74000000   -21.03900000
   C     37.07000000    12.92000000   -20.11900000
   C     38.24000000    13.78000000   -20.58900000
   O     38.46000000    13.79000000   -21.79900000
   C     37.61000000    11.61000000   -19.55900000
   C     36.52000000    10.85000000   -18.80900000
   O     38.08000000    10.77000000   -20.58900000
   H     36.23000000    12.87000000   -22.00900000
   H     36.67000000    13.47000000   -19.26900000
   H     38.51000000    11.78000000   -18.96900000
   H     38.38000000     9.98000000   -20.11900000
   H     36.13000000    11.44000000   -17.97900000
   H     35.70000000    10.48000000   -19.41900000
   H     36.90000000     9.91000000   -18.40900000
   N     39.05000000    14.40000000   -19.72900000
   C     40.14000000    15.28000000   -20.07900000
   C     41.45000000    14.50000000   -20.12900000
   O     41.86000000    13.80000000   -19.20900000
   C     40.22000000    16.42000000   -19.07900000
   C     39.07000000    17.43000000   -19.14900000
   C     41.56000000    17.16000000   -19.11900000
   C     38.84000000    18.33000000   -20.34900000
   H     38.75000000    14.32000000   -18.76900000
   H     39.95000000    15.75000000   -21.04900000
   H     40.22000000    16.01000000   -18.06900000
   H     39.25000000    18.11000000   -18.30900000
   H     38.15000000    16.91000000   -18.88900000
   H     41.51000000    18.08000000   -18.51900000
   H     42.38000000    16.57000000   -18.71900000
   H     41.90000000    17.39000000   -20.12900000
   H     38.37000000    17.76000000   -21.14900000
   H     38.25000000    19.20000000   -20.05900000
   H     39.80000000    18.72000000   -20.69900000
   N     42.17000000    14.60000000   -21.25900000
   C     43.48000000    14.02000000   -21.42900000
   C     44.51000000    15.12000000   -21.20900000
   O     44.20000000    16.30000000   -21.26900000
   C     43.68000000    13.45000000   -22.82900000
   C     42.62000000    12.45000000   -23.25900000
   O     42.53000000    11.31000000   -22.75900000
   O     41.87000000    12.73000000   -24.21900000
   H     41.87000000    15.23000000   -21.98900000
   H     43.62000000    13.19000000   -20.72900000
   H     44.68000000    13.01000000   -22.90900000
   H     43.74000000    14.22000000   -23.59900000
   N     45.81000000    14.85000000   -21.05900000
   C     46.83000000    15.86000000   -20.80900000
   C     47.04000000    16.81000000   -21.96900000
   O     47.09000000    18.02000000   -21.76900000
   C     48.17000000    15.30000000   -20.34900000
   C     49.08000000    16.38000000   -19.81900000
   C     50.30000000    16.60000000   -20.46900000
   C     48.78000000    17.20000000   -18.72900000
   C     51.14000000    17.69000000   -20.23900000
   C     49.61000000    18.29000000   -18.45900000
   C     50.76000000    18.57000000   -19.21900000
   H     46.15000000    13.91000000   -20.92900000
   H     46.44000000    16.48000000   -19.99900000
   H     48.71000000    14.68000000   -21.05900000
   H     47.89000000    14.64000000   -19.51900000
   H     50.45000000    16.05000000   -21.38900000
   H     47.95000000    16.95000000   -18.08900000
   H     52.07000000    17.89000000   -20.74900000
   H     49.29000000    18.92000000   -17.63900000
   H     51.35000000    19.43000000   -18.96900000
   N     47.05000000    16.45000000   -23.25900000
   C     46.90000000    17.43000000   -24.31900000
   C     45.76000000    18.43000000   -24.17900000
   O     45.75000000    19.54000000   -24.69900000
   C     46.84000000    16.66000000   -25.62900000
   C     47.52000000    15.34000000   -25.26900000
   C     47.38000000    15.13000000   -23.75900000
   H     47.81000000    18.00000000   -24.48900000
   H     45.80000000    16.54000000   -25.92900000
   H     47.32000000    17.18000000   -26.45900000
   H     47.00000000    14.57000000   -25.82900000
   H     48.56000000    15.48000000   -25.56900000
   H     46.61000000    14.39000000   -23.55900000
   H     48.28000000    14.72000000   -23.30900000
   N     44.66000000    18.02000000   -23.52900000
   C     43.47000000    18.83000000   -23.42900000
   C     43.56000000    19.75000000   -22.22900000
   O     43.04000000    20.87000000   -22.23900000
   C     42.21000000    17.97000000   -23.36900000
   C     42.19000000    16.81000000   -24.35900000
   C     40.95000000    15.92000000   -24.32900000
   O     40.69000000    15.26000000   -25.35900000
   O     40.40000000    15.52000000   -23.28900000
   H     44.67000000    17.10000000   -23.12900000
   H     43.42000000    19.48000000   -24.29900000
   H     41.45000000    18.71000000   -23.60900000
   H     41.96000000    17.74000000   -22.32900000
   H     42.97000000    16.07000000   -24.18900000
   H     42.31000000    17.23000000   -25.35900000
   N     44.23000000    19.42000000   -21.11900000
   C     44.40000000    20.20000000   -19.91900000
   H     45.09700000    21.01600000   -20.11200000
   H     43.43800000    20.61000000   -19.61200000
   H     44.79500000    19.56600000   -19.12600000
   H     44.63000000    18.49000000   -21.14900000
  Ca     39.39000000    13.23000000   -24.16900000
   O     39.94000000    11.36000000   -22.45900000
   H     40.88000000    11.25000000   -22.56900000
   H     39.77000000    11.06000000   -21.56900000

Ca 1.00



