%chk=loop2.apoCaM-CA-Ng.Init31.run14.water3.chk
%nprocshared=20
%mem=10GB
%nosave
#b3lyp/svp scf=(tight,noincore,xqc) Test 
#IOP(5/87=12) Density=Current Pop=(MK,readradii) iop(6/33=2) iop(6/42=6)

loop2.apoCaM-CA-Ng.Init31.run14.water3 

   -2  1 
   C     80.26000000    58.45000000    -9.12000000
   C     78.82000000    58.83000000    -9.43000000
   O     78.33000000    59.86000000    -8.99000000
   H     80.87400000    59.35000000    -9.08900000
   H     80.30400000    57.94700000    -8.15400000
   H     80.63500000    57.78200000    -9.89500000
   N     78.10000000    58.13000000   -10.31000000
   C     78.55000000    57.07000000   -11.20000000
   C     77.59000000    55.89000000   -11.22000000
   O     76.38000000    55.99000000   -11.09000000
   C     78.64000000    57.68000000   -12.59000000
   C     77.56000000    58.65000000   -13.04000000
   O     77.92000000    59.43000000   -13.94000000
   O     76.41000000    58.69000000   -12.53000000
   H     77.19000000    58.54000000   -10.51000000
   H     79.59000000    56.85000000   -10.97000000
   H     78.53000000    56.80000000   -13.23000000
   H     79.60000000    58.20000000   -12.68000000
   N     78.22000000    54.71000000   -11.23000000
   C     77.59000000    53.43000000   -11.50000000
   C     77.15000000    53.35000000   -12.95000000
   O     77.68000000    52.61000000   -13.78000000
   C     76.66000000    53.00000000   -10.38000000
   H     79.22000000    54.67000000   -11.40000000
   H     78.50000000    52.83000000   -11.39000000
   H     76.48000000    51.93000000   -10.55000000
   H     77.03000000    53.18000000    -9.37000000
   H     75.69000000    53.49000000   -10.40000000
   N     76.14000000    54.16000000   -13.28000000
   C     75.66000000    54.34000000   -14.64000000
   C     75.94000000    55.79000000   -15.01000000
   O     75.70000000    56.64000000   -14.16000000
   C     74.17000000    54.01000000   -14.70000000
   C     73.25000000    54.56000000   -13.62000000
   O     73.70000000    55.22000000   -12.67000000
   O     72.03000000    54.28000000   -13.72000000
   H     75.68000000    54.70000000   -12.57000000
   H     76.19000000    53.72000000   -15.36000000
   H     74.15000000    52.93000000   -14.60000000
   H     73.74000000    54.30000000   -15.66000000
   N     76.56000000    56.06000000   -16.17000000
   C     77.12000000    57.34000000   -16.55000000
   C     76.06000000    58.39000000   -16.84000000
   O     75.67000000    58.59000000   -17.99000000
   H     76.73000000    55.28000000   -16.78000000
   H     77.87000000    57.27000000   -17.34000000
   H     77.66000000    57.72000000   -15.68000000
   N     75.66000000    59.11000000   -15.79000000
   C     74.56000000    60.04000000   -15.87000000
   C     74.47000000    61.04000000   -14.72000000
   O     73.63000000    61.94000000   -14.76000000
   C     73.24000000    59.34000000   -16.20000000
   C     72.68000000    58.45000000   -15.10000000
   N     71.83000000    57.50000000   -15.48000000
   O     72.95000000    58.59000000   -13.91000000
   H     76.18000000    58.85000000   -14.97000000
   H     74.79000000    60.65000000   -16.74000000
   H     73.41000000    58.71000000   -17.07000000
   H     72.51000000    60.10000000   -16.49000000
   H     71.70000000    57.43000000   -16.48000000
   H     71.36000000    56.91000000   -14.81000000
   N     75.37000000    61.03000000   -13.73000000
   C     75.42000000    61.82000000   -12.51000000
   C     74.24000000    61.44000000   -11.64000000
   O     74.03000000    60.26000000   -11.36000000
   H     76.10000000    60.36000000   -13.88000000
   H     75.39000000    62.89000000   -12.72000000
   H     76.35000000    61.62000000   -11.97000000
   N     73.49000000    62.43000000   -11.13000000
   C     73.24000000    63.80000000   -11.54000000
   C     74.23000000    64.82000000   -11.00000000
   O     74.69000000    65.63000000   -11.81000000
   C     71.81000000    64.25000000   -11.27000000
   C     71.48000000    65.70000000   -11.64000000
   O     70.86000000    63.41000000   -11.89000000
   H     72.91000000    62.17000000   -10.35000000
   H     73.42000000    63.80000000   -12.61000000
   H     71.56000000    64.24000000   -10.21000000
   H     70.13000000    63.98000000   -12.11000000
   H     71.54000000    65.81000000   -12.73000000
   H     70.48000000    65.96000000   -11.32000000
   H     72.26000000    66.29000000   -11.16000000
   N     74.52000000    64.65000000    -9.71000000
   C     75.25000000    65.59000000    -8.87000000
   C     74.87000000    67.06000000    -8.82000000
   O     74.92000000    67.85000000    -9.75000000
   C     76.77000000    65.49000000    -9.02000000
   C     77.35000000    64.14000000    -9.42000000
   C     77.37000000    65.98000000    -7.71000000
   C     78.84000000    64.00000000    -9.68000000
   H     73.95000000    63.95000000    -9.25000000
   H     75.13000000    65.21000000    -7.86000000
   H     77.15000000    66.20000000    -9.76000000
   H     76.94000000    63.79000000   -10.38000000
   H     77.19000000    63.45000000    -8.59000000
   H     76.87000000    65.49000000    -6.87000000
   H     78.43000000    65.75000000    -7.62000000
   H     77.33000000    67.06000000    -7.56000000
   H     79.49000000    64.39000000    -8.90000000
   H     79.03000000    62.93000000    -9.65000000
   H     79.08000000    64.57000000   -10.58000000
   N     74.47000000    67.59000000    -7.66000000
   C     73.79000000    66.94000000    -6.55000000
   C     74.71000000    66.72000000    -5.36000000
   O     75.04000000    65.60000000    -4.97000000
   C     72.49000000    67.62000000    -6.12000000
   C     72.62000000    69.11000000    -5.89000000
   O     73.70000000    69.69000000    -6.12000000
   O     71.57000000    69.74000000    -5.62000000
   H     74.40000000    68.60000000    -7.65000000
   H     73.57000000    65.90000000    -6.80000000
   H     72.10000000    67.32000000    -5.15000000
   H     71.72000000    67.46000000    -6.87000000
   N     75.17000000    67.80000000    -4.72000000
   C     76.00000000    67.83000000    -3.53000000
   C     75.13000000    68.28000000    -2.36000000
   O     74.04000000    68.80000000    -2.58000000
   C     77.30000000    68.56000000    -3.84000000
   C     77.16000000    70.06000000    -3.89000000
   C     76.67000000    70.55000000    -5.11000000
   C     77.37000000    70.89000000    -2.78000000
   C     76.42000000    71.92000000    -5.19000000
   C     77.24000000    72.28000000    -2.88000000
   C     76.80000000    72.74000000    -4.12000000
   H     74.83000000    68.69000000    -5.05000000
   H     76.26000000    66.80000000    -3.31000000
   H     77.70000000    68.25000000    -4.81000000
   H     78.09000000    68.48000000    -3.09000000
   H     76.47000000    69.88000000    -5.94000000
   H     77.67000000    70.46000000    -1.83000000
   H     76.10000000    72.41000000    -6.09000000
   H     77.50000000    72.97000000    -2.09000000
   H     76.78000000    73.82000000    -4.26000000
   N     75.62000000    68.14000000    -1.13000000
   C     76.90000000    67.58000000    -0.73000000
   C     76.99000000    66.06000000    -0.72000000
   O     76.01000000    65.41000000    -1.09000000
   C     77.07000000    68.10000000     0.69000000
   C     75.67000000    68.29000000     1.25000000
   C     74.83000000    68.57000000     0.01000000
   H     77.71000000    68.00000000    -1.33000000
   H     77.65000000    67.39000000     1.28000000
   H     77.58000000    69.05000000     0.55000000
   H     75.36000000    67.31000000     1.63000000
   H     75.42000000    69.09000000     1.95000000
   H     73.91000000    67.99000000     0.05000000
   H     74.70000000    69.65000000    -0.07000000
   N     78.19000000    65.51000000    -0.52000000
   C     78.40000000    64.08000000    -0.68000000
   C     79.76000000    63.71000000    -1.24000000
   O     80.44000000    62.86000000    -0.67000000
   C     78.09000000    63.26000000     0.57000000
   C     78.72000000    63.71000000     1.88000000
   C     79.22000000    62.46000000     2.60000000
   O     80.46000000    62.31000000     2.65000000
   O     78.41000000    61.71000000     3.19000000
   H     79.00000000    66.07000000    -0.29000000
   H     77.74000000    63.77000000    -1.49000000
   H     78.20000000    62.20000000     0.34000000
   H     77.01000000    63.26000000     0.68000000
   H     77.93000000    64.15000000     2.49000000
   H     79.53000000    64.42000000     1.74000000
   N     80.30000000    64.24000000    -2.34000000
   C     79.82000000    65.27000000    -3.24000000
   H     78.91700000    65.72100000    -2.82700000
   H     80.58600000    66.03600000    -3.35800000
   H     79.59400000    64.82900000    -4.21100000
   H     81.17000000    63.82000000    -2.64000000
  Ca     74.25000000    57.55000000   -11.82200000
   O     75.29000000    58.29000000    -9.17200000
   H     74.92000000    58.02000000    -8.33200000
   H     75.92000000    58.97000000    -8.95200000
   O     71.37000000    57.92000000   -11.53200000
   H     70.61000000    58.42000000   -11.24200000
   H     71.00000000    57.08000000   -11.82200000
   O     73.10000000    56.53000000    -9.63200000
   H     72.15000000    56.49000000    -9.49200000
   H     73.47000000    56.57000000    -8.75200000

Ca 1.00



