%chk=loop4.apoCaM-CA-Ng.Init295.run97.water3.chk
%nprocshared=20
%mem=10GB
%nosave
#b3lyp/svp scf=(tight,noincore,xqc) Test 
#IOP(5/87=12) Density=Current Pop=(MK,readradii) iop(6/33=2) iop(6/42=6)

loop4.apoCaM-CA-Ng.Init295.run97.water3 

   -3  1 
   C    115.72000000    67.43000000    74.64000000
   C    114.59000000    66.42000000    74.80000000
   O    113.42000000    66.79000000    74.68000000
   H    116.59200000    66.93400000    74.21400000
   H    115.39900000    68.23300000    73.97600000
   H    115.97800000    67.84500000    75.61400000
   N    115.00000000    65.22000000    75.20000000
   C    114.13000000    64.10000000    75.49000000
   C    113.15000000    63.68000000    74.40000000
   O    111.98000000    63.75000000    74.78000000
   C    113.49000000    64.21000000    76.88000000
   C    114.47000000    64.71000000    77.93000000
   O    115.30000000    63.89000000    78.37000000
   O    114.24000000    65.81000000    78.49000000
   H    115.99000000    65.04000000    75.29000000
   H    114.81000000    63.25000000    75.48000000
   H    113.06000000    63.23000000    77.10000000
   H    112.65000000    64.91000000    76.89000000
   N    113.66000000    63.37000000    73.21000000
   C    112.91000000    63.09000000    72.01000000
   C    113.22000000    61.65000000    71.64000000
   O    114.33000000    61.30000000    71.24000000
   C    113.18000000    64.03000000    70.83000000
   C    112.59000000    65.38000000    71.22000000
   C    112.54000000    63.52000000    69.54000000
   C    112.74000000    66.58000000    70.29000000
   H    114.65000000    63.18000000    73.19000000
   H    111.84000000    63.27000000    72.14000000
   H    114.25000000    64.16000000    70.69000000
   H    112.95000000    65.63000000    72.22000000
   H    111.51000000    65.32000000    71.32000000
   H    112.94000000    62.55000000    69.25000000
   H    111.47000000    63.46000000    69.73000000
   H    112.87000000    64.22000000    68.77000000
   H    113.80000000    66.82000000    70.20000000
   H    112.30000000    66.35000000    69.32000000
   H    112.17000000    67.43000000    70.66000000
   N    112.31000000    60.69000000    71.83000000
   C    110.88000000    60.81000000    72.06000000
   C    110.53000000    60.55000000    73.52000000
   O    109.57000000    61.16000000    74.00000000
   C    110.14000000    59.78000000    71.21000000
   C    110.17000000    60.01000000    69.71000000
   O    111.20000000    59.76000000    69.05000000
   O    109.08000000    60.14000000    69.10000000
   H    112.62000000    59.80000000    71.49000000
   H    110.55000000    61.78000000    71.70000000
   H    109.11000000    59.76000000    71.56000000
   H    110.44000000    58.76000000    71.47000000
   N    111.40000000    59.86000000    74.25000000
   C    111.25000000    59.53000000    75.66000000
   C    110.00000000    58.70000000    75.90000000
   O    109.78000000    57.66000000    75.29000000
   H    112.28000000    59.71000000    73.78000000
   H    111.16000000    60.46000000    76.22000000
   H    112.10000000    59.01000000    76.09000000
   N    109.20000000    59.10000000    76.90000000
   C    107.89000000    58.50000000    77.04000000
   C    106.79000000    59.35000000    76.45000000
   O    105.65000000    58.91000000    76.32000000
   C    107.56000000    58.14000000    78.49000000
   C    107.43000000    59.32000000    79.44000000
   O    107.72000000    60.46000000    79.04000000
   O    106.86000000    59.13000000    80.54000000
   H    109.38000000    60.03000000    77.26000000
   H    107.91000000    57.50000000    76.61000000
   H    108.42000000    57.55000000    78.83000000
   H    106.72000000    57.45000000    78.51000000
   N    107.06000000    60.54000000    75.90000000
   C    106.15000000    61.49000000    75.31000000
   C    105.29000000    62.26000000    76.31000000
   O    104.47000000    63.01000000    75.79000000
   H    108.03000000    60.82000000    75.90000000
   H    105.48000000    61.02000000    74.59000000
   H    106.85000000    62.17000000    74.83000000
   N    105.41000000    62.04000000    77.62000000
   C    104.59000000    62.68000000    78.63000000
   C    104.62000000    64.20000000    78.55000000
   O    103.56000000    64.76000000    78.31000000
   C    103.23000000    61.98000000    78.58000000
   C    103.21000000    60.55000000    79.12000000
   C    101.81000000    60.02000000    79.42000000
   N    101.67000000    58.79000000    79.91000000
   O    100.82000000    60.72000000    79.26000000
   H    106.04000000    61.33000000    77.96000000
   H    104.96000000    62.44000000    79.63000000
   H    102.84000000    62.07000000    77.57000000
   H    102.64000000    62.51000000    79.33000000
   H    103.84000000    60.49000000    80.00000000
   H    103.60000000    59.87000000    78.36000000
   H    102.47000000    58.28000000    80.27000000
   H    100.78000000    58.32000000    80.02000000
   N    105.79000000    64.84000000    78.65000000
   C    105.96000000    66.25000000    78.37000000
   C    106.88000000    66.90000000    79.40000000
   O    107.74000000    66.22000000    79.95000000
   C    106.30000000    66.64000000    76.93000000
   C    107.33000000    65.73000000    76.26000000
   C    105.14000000    66.76000000    75.95000000
   H    106.64000000    64.30000000    78.59000000
   H    104.96000000    66.64000000    78.56000000
   H    106.75000000    67.63000000    76.99000000
   H    107.78000000    66.20000000    75.39000000
   H    108.08000000    65.54000000    77.02000000
   H    106.88000000    64.78000000    75.97000000
   H    104.56000000    65.83000000    75.92000000
   H    104.47000000    67.53000000    76.32000000
   H    105.36000000    67.10000000    74.94000000
   N    106.52000000    68.12000000    79.80000000
   C    107.33000000    68.95000000    80.67000000
   C    107.63000000    70.29000000    80.01000000
   O    107.00000000    70.59000000    78.99000000
   C    106.59000000    68.94000000    82.01000000
   C    106.44000000    67.57000000    82.65000000
   N    107.50000000    66.80000000    82.89000000
   O    105.34000000    67.07000000    82.88000000
   H    105.77000000    68.54000000    79.28000000
   H    108.27000000    68.41000000    80.78000000
   H    105.60000000    69.37000000    81.84000000
   H    107.18000000    69.55000000    82.69000000
   H    108.47000000    67.06000000    82.76000000
   H    107.24000000    65.86000000    83.13000000
   N    108.57000000    71.10000000    80.49000000
   C    108.78000000    72.45000000    80.02000000
   C    110.19000000    72.89000000    80.39000000
   O    110.40000000    74.05000000    80.74000000
   C    107.63000000    73.40000000    80.37000000
   C    107.46000000    74.71000000    79.63000000
   C    107.16000000    74.69000000    78.26000000
   C    107.66000000    75.95000000    80.24000000
   C    107.01000000    75.83000000    77.45000000
   C    107.42000000    77.10000000    79.48000000
   C    107.12000000    77.07000000    78.11000000
   O    107.39000000    78.20000000    77.38000000
   H    108.92000000    70.95000000    81.43000000
   H    108.76000000    72.48000000    78.93000000
   H    107.81000000    73.68000000    81.41000000
   H    106.69000000    72.89000000    80.53000000
   H    106.99000000    73.75000000    77.76000000
   H    107.83000000    75.91000000    81.31000000
   H    106.90000000    75.79000000    76.38000000
   H    107.63000000    78.02000000    80.01000000
   H    107.35000000    79.00000000    77.90000000
   N    111.12000000    71.94000000    80.49000000
   C    112.47000000    72.22000000    80.96000000
   C    113.32000000    73.23000000    80.20000000
   O    114.02000000    74.00000000    80.84000000
   C    113.23000000    70.92000000    81.23000000
   C    114.60000000    71.11000000    81.86000000
   C    115.15000000    69.89000000    82.59000000
   O    115.31000000    68.90000000    81.85000000
   O    115.38000000    69.87000000    83.82000000
   H    110.94000000    70.96000000    80.36000000
   H    112.30000000    72.53000000    81.99000000
   H    113.52000000    70.44000000    80.30000000
   H    112.58000000    70.24000000    81.77000000
   H    114.52000000    71.87000000    82.63000000
   H    115.38000000    71.43000000    81.18000000
   N    113.56000000    73.18000000    78.88000000
   C    113.11000000    72.19000000    77.93000000
   C    111.85000000    72.51000000    77.14000000
   O    111.43000000    73.65000000    77.03000000
   C    114.29000000    72.04000000    76.97000000
   C    115.65000000    71.61000000    77.51000000
   C    115.67000000    70.24000000    78.17000000
   O    116.54000000    69.99000000    79.03000000
   O    114.84000000    69.32000000    77.95000000
   H    114.08000000    73.96000000    78.51000000
   H    112.92000000    71.27000000    78.49000000
   H    114.44000000    73.03000000    76.53000000
   H    114.06000000    71.32000000    76.19000000
   H    115.98000000    72.32000000    78.27000000
   H    116.33000000    71.61000000    76.65000000
   N    111.43000000    71.51000000    76.35000000
   C    110.32000000    71.49000000    75.41000000
   H    109.50400000    72.09900000    75.79900000
   H    110.64800000    71.89300000    74.45100000
   H    109.97500000    70.46500000    75.27600000
   H    111.98000000    70.67000000    76.34000000
  Ca    115.75400000    67.53000000    79.59000000
   O    114.83400000    66.04000000    81.65000000
   H    114.77400000    65.14000000    81.95000000
   H    115.00400000    66.55000000    82.45000000
   O    118.43400000    67.81000000    80.02000000
   H    119.24400000    67.49000000    79.63000000
   H    118.69400000    68.16000000    80.87000000
   O    117.06400000    65.27000000    79.62000000
   H    117.96400000    64.94000000    79.61000000
   H    116.54400000    64.57000000    79.22000000

Ca 1.00



