%chk=loop3.apoCaM-CA-Ng.Init295.run22.water3.chk
%nprocshared=20
%mem=10GB
%nosave
#b3lyp/svp scf=(tight,noincore,xqc) Test 
#IOP(5/87=12) Density=Current Pop=(MK,readradii) iop(6/33=2) iop(6/42=6)

loop3.apoCaM-CA-Ng.Init295.run22.water3 

   0  1 
   C     94.63000000    36.42000000    39.43000000
   C     95.89000000    36.98000000    40.08000000
   O     95.87000000    37.91000000    40.89000000
   H     93.85300000    37.18400000    39.42800000
   H     94.85000000    36.12400000    38.40400000
   H     94.28500000    35.55300000    39.99300000
   N     97.01000000    36.26000000    39.96000000
   C     98.30000000    36.85000000    40.26000000
   C     98.94000000    37.52000000    39.05000000
   O     98.83000000    36.91000000    37.99000000
   C     99.25000000    35.83000000    40.88000000
   C    100.56000000    36.39000000    41.40000000
   O    100.82000000    36.15000000    42.59000000
   O    101.42000000    37.01000000    40.72000000
   H     97.02000000    35.49000000    39.31000000
   H     98.17000000    37.66000000    40.98000000
   H     99.48000000    35.02000000    40.19000000
   H     98.65000000    35.31000000    41.62000000
   N     99.46000000    38.74000000    39.17000000
   C     99.78000000    39.56000000    38.02000000
   C    101.04000000    39.13000000    37.28000000
   O    101.22000000    39.55000000    36.14000000
   C     99.95000000    41.00000000    38.48000000
   C     98.68000000    41.82000000    38.74000000
   C     97.98000000    41.59000000    40.08000000
   C     97.44000000    42.82000000    40.81000000
   N     98.47000000    43.78000000    41.23000000
   H     99.54000000    39.19000000    40.07000000
   H     98.92000000    39.51000000    37.35000000
   H    100.47000000    41.53000000    37.68000000
   H    100.66000000    41.05000000    39.31000000
   H     97.99000000    41.63000000    37.92000000
   H     99.07000000    42.84000000    38.70000000
   H     98.62000000    41.12000000    40.81000000
   H     97.10000000    40.99000000    39.83000000
   H     96.88000000    42.43000000    41.66000000
   H     96.77000000    43.35000000    40.14000000
   H     98.15000000    44.17000000    42.11000000
   H     99.38000000    43.38000000    41.39000000
   H     98.65000000    44.51000000    40.56000000
   N    101.86000000    38.24000000    37.84000000
   C    103.01000000    37.69000000    37.15000000
   C    102.67000000    36.24000000    36.85000000
   O    103.44000000    35.59000000    36.15000000
   C    104.36000000    37.80000000    37.85000000
   C    104.31000000    37.37000000    39.31000000
   O    103.98000000    36.20000000    39.61000000
   O    104.61000000    38.24000000    40.16000000
   H    101.71000000    37.97000000    38.80000000
   H    103.18000000    38.16000000    36.18000000
   H    104.81000000    38.79000000    37.72000000
   H    105.09000000    37.20000000    37.31000000
   N    101.50000000    35.77000000    37.30000000
   C    100.95000000    34.44000000    37.12000000
   C    101.51000000    33.34000000    38.01000000
   O    101.19000000    32.17000000    37.80000000
   H    100.94000000    36.53000000    37.66000000
   H    101.10000000    34.16000000    36.08000000
   H     99.86000000    34.47000000    37.17000000
   N    102.26000000    33.69000000    39.05000000
   C    102.68000000    32.75000000    40.07000000
   C    102.24000000    33.21000000    41.46000000
   O    102.74000000    34.22000000    41.94000000
   C    104.20000000    32.67000000    40.03000000
   C    104.72000000    31.51000000    40.88000000
   N    106.03000000    31.28000000    40.78000000
   O    103.99000000    30.79000000    41.56000000
   H    102.56000000    34.64000000    39.21000000
   H    102.25000000    31.78000000    39.80000000
   H    104.63000000    33.60000000    40.40000000
   H    104.50000000    32.49000000    39.00000000
   H    106.66000000    31.74000000    40.14000000
   H    106.42000000    30.54000000    41.34000000
   N    101.36000000    32.42000000    42.08000000
   C    100.67000000    32.77000000    43.31000000
   C    101.47000000    33.10000000    44.56000000
   O    100.90000000    33.40000000    45.61000000
   H    101.17000000    31.48000000    41.75000000
   H    100.04000000    31.95000000    43.64000000
   H     99.99000000    33.58000000    43.06000000
   N    102.80000000    33.09000000    44.45000000
   C    103.66000000    33.52000000    45.53000000
   C    103.82000000    35.04000000    45.52000000
   O    103.78000000    35.79000000    44.55000000
   C    104.87000000    32.59000000    45.58000000
   C    104.60000000    31.11000000    45.65000000
   C    105.07000000    30.24000000    44.66000000
   C    103.92000000    30.54000000    46.73000000
   C    104.92000000    28.85000000    44.73000000
   C    103.68000000    29.16000000    46.79000000
   C    104.10000000    28.32000000    45.75000000
   O    103.90000000    26.97000000    45.87000000
   H    103.24000000    32.71000000    43.62000000
   H    103.14000000    33.24000000    46.44000000
   H    105.51000000    32.81000000    46.44000000
   H    105.35000000    32.77000000    44.62000000
   H    105.71000000    30.66000000    43.90000000
   H    103.64000000    31.12000000    47.59000000
   H    105.28000000    28.23000000    43.91000000
   H    103.21000000    28.73000000    47.66000000
   H    103.44000000    26.73000000    46.69000000
   N    103.93000000    35.54000000    46.75000000
   C    103.84000000    36.89000000    47.28000000
   C    104.98000000    37.77000000    46.79000000
   O    105.70000000    37.55000000    45.82000000
   C    102.41000000    37.43000000    47.27000000
   C    101.37000000    36.49000000    47.86000000
   C    102.03000000    37.84000000    45.85000000
   C    100.26000000    37.14000000    48.68000000
   H    103.91000000    34.85000000    47.49000000
   H    103.97000000    36.81000000    48.36000000
   H    102.54000000    38.34000000    47.87000000
   H    101.71000000    35.70000000    48.53000000
   H    100.95000000    35.92000000    47.03000000
   H    102.81000000    38.33000000    45.28000000
   H    101.82000000    36.95000000    45.25000000
   H    101.15000000    38.48000000    45.90000000
   H     99.81000000    37.90000000    48.05000000
   H     99.55000000    36.38000000    48.99000000
   H    100.71000000    37.67000000    49.53000000
   N    105.26000000    38.78000000    47.61000000
   C    106.34000000    39.74000000    47.42000000
   C    107.34000000    39.73000000    48.57000000
   O    108.49000000    40.11000000    48.34000000
   C    105.88000000    41.19000000    47.32000000
   O    105.24000000    41.73000000    48.46000000
   H    104.63000000    38.95000000    48.38000000
   H    106.92000000    39.55000000    46.53000000
   H    105.34000000    41.39000000    46.39000000
   H    106.79000000    41.79000000    47.32000000
   H    104.56000000    42.37000000    48.24000000
   N    106.88000000    39.30000000    49.75000000
   C    107.63000000    38.97000000    50.95000000
   C    108.80000000    39.88000000    51.27000000
   O    109.93000000    39.44000000    51.49000000
   C    107.95000000    37.48000000    50.89000000
   H    105.91000000    39.05000000    49.77000000
   H    106.90000000    39.05000000    51.75000000
   H    107.05000000    36.93000000    50.59000000
   H    108.71000000    37.37000000    50.11000000
   H    108.28000000    37.02000000    51.82000000
   N    108.64000000    41.20000000    51.29000000
   C    107.44000000    42.00000000    51.38000000
   C    106.92000000    42.23000000    52.80000000
   O    107.78000000    42.36000000    53.67000000
   C    107.85000000    43.26000000    50.62000000
   H    109.52000000    41.70000000    51.25000000
   H    106.66000000    41.52000000    50.80000000
   H    108.64000000    43.78000000    51.16000000
   H    108.30000000    42.96000000    49.68000000
   H    106.97000000    43.91000000    50.56000000
   N    105.63000000    42.29000000    53.12000000
   C    104.46000000    42.17000000    52.26000000
   C    103.50000000    41.20000000    52.94000000
   O    103.17000000    40.22000000    52.28000000
   C    103.98000000    43.57000000    51.90000000
   C    102.78000000    43.50000000    50.97000000
   C    102.43000000    44.96000000    50.73000000
   O    101.70000000    45.56000000    51.55000000
   O    102.81000000    45.50000000    49.66000000
   H    105.43000000    42.68000000    54.03000000
   H    104.73000000    41.78000000    51.28000000
   H    104.80000000    44.11000000    51.42000000
   H    103.74000000    44.08000000    52.83000000
   H    101.93000000    43.08000000    51.51000000
   H    103.01000000    43.02000000    50.02000000
   N    103.13000000    41.52000000    54.18000000
   C    102.22000000    40.73000000    54.99000000
   H    101.27200000    40.61500000    54.46400000
   H    102.65500000    39.74700000    55.17300000
   H    102.04800000    41.23400000    55.94100000
   H    103.51000000    42.33000000    54.64000000
  Ca    103.40000000    36.73000000    42.22000000
   O    105.03000000    38.54000000    43.34000000
   H    105.28000000    38.11000000    44.15000000
   H    105.30000000    39.45000000    43.46000000
   O    102.43000000    39.28000000    42.27000000
   H    102.21000000    39.79000000    43.05000000
   H    102.50000000    39.94000000    41.57000000
   O    105.73000000    35.49000000    41.82000000
   H    106.16000000    35.39000000    40.97000000
   H    106.43000000    35.75000000    42.41000000

Ca 1.00



