%chk=loop4.holoCaM-CaMKII.run47.water2.chk
%nprocshared=20
%mem=10GB
%nosave
#b3lyp/svp scf=(tight,noincore,xqc) Test 
#IOP(5/87=12) Density=Current Pop=(MK,readradii) iop(6/33=2) iop(6/42=6)

loop4.holoCaM-CaMKII.run47.water2 

   -3  1 
   C     28.99000000    47.33000000    18.71300000
   C     30.08000000    48.33000000    19.06300000
   O     29.70000000    49.47000000    19.31300000
   H     28.12100000    47.86200000    18.32600000
   H     29.36000000    46.63900000    17.95500000
   H     28.70700000    46.77300000    19.60600000
   N     31.36000000    47.98000000    19.14300000
   C     32.43000000    48.85000000    19.59300000
   C     32.85000000    49.76000000    18.45300000
   O     33.37000000    49.28000000    17.44300000
   C     33.51000000    47.94000000    20.18300000
   C     34.73000000    48.67000000    20.72300000
   O     35.85000000    48.15000000    20.90300000
   O     34.64000000    49.91000000    20.86300000
   H     31.64000000    47.02000000    19.05300000
   H     32.12000000    49.46000000    20.44300000
   H     33.80000000    47.20000000    19.43300000
   H     33.09000000    47.42000000    21.04300000
   N     32.84000000    51.07000000    18.69300000
   C     33.03000000    52.08000000    17.67300000
   C     34.40000000    52.75000000    17.72300000
   O     34.86000000    53.30000000    16.73300000
   C     31.92000000    53.12000000    17.77300000
   C     30.65000000    52.56000000    17.14300000
   C     32.29000000    54.49000000    17.19300000
   C     30.60000000    52.49000000    15.62300000
   H     32.47000000    51.44000000    19.55300000
   H     33.00000000    51.66000000    16.66300000
   H     31.66000000    53.26000000    18.82300000
   H     29.85000000    53.24000000    17.43300000
   H     30.41000000    51.57000000    17.54300000
   H     31.47000000    55.21000000    17.21300000
   H     32.99000000    55.07000000    17.79300000
   H     32.73000000    54.31000000    16.21300000
   H     31.32000000    51.71000000    15.38300000
   H     29.64000000    52.10000000    15.28300000
   H     30.92000000    53.34000000    15.01300000
   N     35.07000000    52.64000000    18.87300000
   C     36.36000000    53.24000000    19.17300000
   C     37.47000000    52.31000000    19.65300000
   O     38.66000000    52.60000000    19.70300000
   C     36.17000000    54.37000000    20.19300000
   C     35.38000000    54.04000000    21.44300000
   O     34.91000000    54.98000000    22.12300000
   O     35.06000000    52.87000000    21.73300000
   H     34.62000000    52.25000000    19.69300000
   H     36.74000000    53.65000000    18.24300000
   H     35.53000000    55.09000000    19.69300000
   H     37.14000000    54.78000000    20.46300000
   N     37.15000000    51.03000000    19.85300000
   C     38.09000000    49.93000000    19.79300000
   C     38.78000000    49.69000000    21.12300000
   O     39.97000000    49.93000000    21.30300000
   H     36.17000000    50.79000000    19.77300000
   H     38.91000000    50.21000000    19.12300000
   H     37.66000000    48.98000000    19.49300000
   N     37.99000000    49.33000000    22.13300000
   C     38.48000000    48.97000000    23.45300000
   C     38.30000000    47.50000000    23.80300000
   O     38.91000000    46.91000000    24.68300000
   C     37.83000000    49.96000000    24.42300000
   C     36.42000000    50.38000000    24.03300000
   O     35.62000000    49.47000000    23.71300000
   O     36.09000000    51.58000000    24.06300000
   H     37.02000000    49.18000000    21.91300000
   H     39.56000000    49.09000000    23.50300000
   H     38.54000000    50.79000000    24.44300000
   H     37.91000000    49.43000000    25.36300000
   N     37.31000000    46.87000000    23.15300000
   C     36.68000000    45.61000000    23.48300000
   C     35.40000000    45.69000000    24.31300000
   O     35.08000000    44.69000000    24.94300000
   H     36.76000000    47.39000000    22.49300000
   H     37.28000000    45.02000000    24.17300000
   H     36.43000000    45.02000000    22.60300000
   N     34.68000000    46.81000000    24.31300000
   C     33.53000000    47.14000000    25.12300000
   C     32.52000000    48.01000000    24.39300000
   O     32.69000000    48.73000000    23.41300000
   C     33.95000000    47.70000000    26.48300000
   C     34.78000000    46.76000000    27.35300000
   C     35.14000000    47.59000000    28.58300000
   N     36.38000000    48.07000000    28.69300000
   O     34.44000000    47.73000000    29.58300000
   H     35.04000000    47.53000000    23.69300000
   H     32.99000000    46.21000000    25.25300000
   H     33.03000000    47.88000000    27.04300000
   H     34.42000000    48.67000000    26.42300000
   H     35.75000000    46.43000000    26.98300000
   H     34.19000000    45.91000000    27.67300000
   H     37.10000000    47.87000000    28.00300000
   H     36.60000000    48.47000000    29.58300000
   N     31.32000000    47.91000000    24.98300000
   C     30.12000000    48.55000000    24.49300000
   C     29.65000000    49.55000000    25.54300000
   O     29.20000000    49.14000000    26.61300000
   C     28.96000000    47.66000000    24.06300000
   C     27.99000000    48.31000000    23.08300000
   C     29.47000000    46.30000000    23.58300000
   H     31.33000000    47.20000000    25.70300000
   H     30.29000000    49.16000000    23.60300000
   H     28.37000000    47.41000000    24.95300000
   H     27.08000000    47.76000000    22.84300000
   H     27.61000000    49.24000000    23.51300000
   H     28.54000000    48.53000000    22.16300000
   H     29.90000000    45.74000000    24.41300000
   H     28.62000000    45.75000000    23.17300000
   H     30.24000000    46.41000000    22.81300000
   N     29.62000000    50.86000000    25.28300000
   C     28.99000000    51.90000000    26.07300000
   C     27.48000000    51.79000000    25.96300000
   O     26.95000000    51.25000000    24.99300000
   C     29.57000000    53.24000000    25.63300000
   C     29.43000000    54.35000000    26.67300000
   N     30.11000000    55.47000000    26.47300000
   O     28.87000000    54.20000000    27.75300000
   H     29.99000000    51.11000000    24.38300000
   H     29.19000000    51.74000000    27.13300000
   H     29.26000000    53.55000000    24.64300000
   H     30.65000000    53.14000000    25.68300000
   H     30.43000000    55.71000000    25.54300000
   H     30.11000000    56.16000000    27.21300000
   N     26.68000000    52.29000000    26.91300000
   C     25.25000000    52.34000000    26.71300000
   C     24.93000000    53.13000000    25.45300000
   O     24.10000000    52.57000000    24.74300000
   C     24.46000000    52.94000000    27.87300000
   C     22.98000000    53.08000000    27.61300000
   C     22.19000000    51.96000000    27.33300000
   C     22.37000000    54.31000000    27.92300000
   C     20.80000000    52.04000000    27.42300000
   C     20.97000000    54.40000000    27.94300000
   C     20.16000000    53.27000000    27.68300000
   O     18.81000000    53.36000000    27.61300000
   H     27.12000000    52.72000000    27.72300000
   H     24.93000000    51.31000000    26.57300000
   H     24.86000000    53.94000000    28.03300000
   H     24.53000000    52.27000000    28.73300000
   H     22.74000000    51.06000000    27.07300000
   H     22.95000000    55.12000000    28.31300000
   H     20.19000000    51.15000000    27.31300000
   H     20.50000000    55.30000000    28.30300000
   H     18.50000000    54.25000000    27.79300000
   N     25.56000000    54.25000000    25.07300000
   C     25.39000000    54.83000000    23.76300000
   C     25.69000000    53.88000000    22.61300000
   O     24.88000000    53.73000000    21.70300000
   C     26.16000000    56.14000000    23.68300000
   C     25.79000000    56.89000000    22.40300000
   C     26.47000000    58.25000000    22.30300000
   O     25.91000000    59.27000000    22.74300000
   O     27.63000000    58.27000000    21.82300000
   H     26.13000000    54.74000000    25.75300000
   H     24.34000000    55.11000000    23.67300000
   H     27.19000000    55.82000000    23.57300000
   H     26.04000000    56.77000000    24.56300000
   H     24.71000000    57.01000000    22.45300000
   H     26.01000000    56.30000000    21.50300000
   N     26.75000000    53.08000000    22.63300000
   C     27.11000000    52.12000000    21.60300000
   C     26.14000000    50.95000000    21.48300000
   O     26.09000000    50.25000000    20.47300000
   C     28.53000000    51.61000000    21.82300000
   C     29.63000000    52.58000000    21.42300000
   C     30.97000000    52.04000000    21.89300000
   O     31.92000000    52.10000000    21.09300000
   O     31.07000000    51.49000000    23.01300000
   H     27.38000000    53.04000000    23.42300000
   H     27.15000000    52.67000000    20.65300000
   H     28.74000000    50.74000000    21.21300000
   H     28.63000000    51.43000000    22.89300000
   H     29.35000000    53.47000000    21.99300000
   H     29.71000000    52.71000000    20.34300000
   N     25.38000000    50.70000000    22.55300000
   C     24.25000000    49.81000000    22.59300000
   H     23.41200000    50.26300000    22.06300000
   H     24.51300000    48.86600000    22.11600000
   H     23.96700000    49.62800000    23.63000000
   H     25.34000000    51.44000000    23.23300000
  Ca     33.80000000    51.09000000    23.01000000
   O     33.77000000    51.08000000    25.88000000
   H     34.53000000    51.16000000    26.45000000
   H     33.18000000    51.78000000    26.17000000
   O     32.99000000    53.50000000    24.27000000
   H     33.34000000    54.21000000    24.81000000
   H     32.65000000    53.93000000    23.48000000

Ca 1.00



