%chk=loop2.apoCaM-CA-Ng.Init295.run68.water3.chk
%nprocshared=20
%mem=10GB
%nosave
#b3lyp/svp scf=(tight,noincore,xqc) Test 
#IOP(5/87=12) Density=Current Pop=(MK,readradii) iop(6/33=2) iop(6/42=6)

loop2.apoCaM-CA-Ng.Init295.run68.water3 

   -2  1 
   C      5.35000000    16.33000000    36.47000000
   C      5.50000000    17.23000000    37.68000000
   O      4.97000000    18.34000000    37.64000000
   H      4.67800000    16.79800000    35.75100000
   H      6.32500000    16.17600000    36.00800000
   H      4.93800000    15.37000000    36.78000000
   N      6.31000000    16.88000000    38.69000000
   C      6.92000000    17.77000000    39.66000000
   C      6.11000000    17.84000000    40.95000000
   O      6.48000000    18.63000000    41.81000000
   C      8.37000000    17.36000000    39.89000000
   C      9.31000000    18.53000000    40.12000000
   O     10.51000000    18.42000000    40.44000000
   O      8.92000000    19.70000000    39.91000000
   H      6.80000000    16.02000000    38.50000000
   H      6.89000000    18.76000000    39.22000000
   H      8.71000000    16.97000000    38.93000000
   H      8.45000000    16.60000000    40.67000000
   N      5.07000000    17.01000000    41.05000000
   C      4.19000000    16.97000000    42.20000000
   C      3.39000000    15.67000000    42.14000000
   O      3.11000000    15.10000000    41.09000000
   C      3.28000000    18.18000000    42.04000000
   H      4.97000000    16.37000000    40.28000000
   H      4.82000000    17.02000000    43.08000000
   H      2.67000000    18.01000000    41.15000000
   H      2.60000000    18.25000000    42.89000000
   H      3.78000000    19.15000000    41.98000000
   N      2.99000000    15.14000000    43.30000000
   C      2.79000000    15.83000000    44.56000000
   C      3.51000000    15.19000000    45.74000000
   O      3.48000000    13.96000000    45.70000000
   C      1.30000000    15.99000000    44.80000000
   C      1.10000000    17.23000000    45.65000000
   O      1.75000000    18.27000000    45.40000000
   O      0.18000000    17.05000000    46.48000000
   H      2.63000000    14.19000000    43.26000000
   H      3.27000000    16.81000000    44.47000000
   H      0.92000000    15.13000000    45.35000000
   H      0.84000000    16.06000000    43.81000000
   N      4.02000000    15.87000000    46.78000000
   C      4.70000000    15.17000000    47.85000000
   C      6.00000000    14.49000000    47.43000000
   O      6.80000000    15.01000000    46.66000000
   H      4.04000000    16.87000000    46.71000000
   H      3.95000000    14.48000000    48.24000000
   H      4.94000000    15.82000000    48.69000000
   N      6.33000000    13.27000000    47.87000000
   C      5.77000000    12.40000000    48.88000000
   C      4.45000000    11.71000000    48.53000000
   O      3.81000000    11.17000000    49.42000000
   C      6.91000000    11.54000000    49.42000000
   C      6.52000000    10.62000000    50.56000000
   N      6.12000000    11.16000000    51.72000000
   O      6.31000000     9.42000000    50.39000000
   H      7.18000000    12.93000000    47.45000000
   H      5.46000000    12.93000000    49.78000000
   H      7.66000000    12.19000000    49.88000000
   H      7.33000000    10.92000000    48.64000000
   H      6.27000000    12.13000000    51.95000000
   H      5.84000000    10.58000000    52.50000000
   N      4.11000000    11.63000000    47.24000000
   C      2.93000000    10.98000000    46.71000000
   C      1.57000000    11.33000000    47.31000000
   O      0.73000000    10.45000000    47.50000000
   H      4.72000000    11.95000000    46.51000000
   H      3.08000000     9.93000000    46.98000000
   H      2.84000000    11.19000000    45.65000000
   N      1.38000000    12.61000000    47.65000000
   C      0.26000000    13.13000000    48.40000000
   C     -0.96000000    13.44000000    47.55000000
   O     -1.50000000    14.54000000    47.63000000
   C      0.68000000    14.31000000    49.26000000
   C      1.55000000    13.86000000    50.43000000
   O      1.43000000    15.17000000    48.42000000
   H      2.11000000    13.19000000    47.27000000
   H     -0.13000000    12.38000000    49.09000000
   H     -0.26000000    14.69000000    49.66000000
   H      0.66000000    15.60000000    48.04000000
   H      1.33000000    12.91000000    50.91000000
   H      2.61000000    13.74000000    50.16000000
   H      1.45000000    14.54000000    51.28000000
   N     -1.22000000    12.61000000    46.53000000
   C     -1.99000000    12.95000000    45.35000000
   C     -3.47000000    12.83000000    45.67000000
   O     -3.98000000    12.13000000    46.54000000
   C     -1.64000000    12.07000000    44.16000000
   C     -0.45000000    12.67000000    43.41000000
   C     -1.65000000    10.56000000    44.43000000
   C      0.17000000    11.96000000    42.21000000
   H     -0.87000000    11.66000000    46.52000000
   H     -1.88000000    14.00000000    45.10000000
   H     -2.54000000    12.14000000    43.56000000
   H      0.39000000    12.85000000    44.07000000
   H     -0.64000000    13.68000000    43.05000000
   H     -1.35000000     9.94000000    43.58000000
   H     -0.90000000    10.42000000    45.21000000
   H     -2.60000000    10.18000000    44.80000000
   H      0.74000000    12.61000000    41.55000000
   H      0.82000000    11.15000000    42.56000000
   H     -0.55000000    11.44000000    41.58000000
   N     -4.32000000    13.58000000    44.96000000
   C     -5.75000000    13.71000000    45.12000000
   C     -6.34000000    14.00000000    43.75000000
   O     -5.83000000    14.84000000    43.01000000
   C     -6.02000000    14.90000000    46.03000000
   C     -5.31000000    14.95000000    47.38000000
   O     -5.94000000    14.54000000    48.38000000
   O     -4.25000000    15.60000000    47.48000000
   H     -3.93000000    14.30000000    44.36000000
   H     -6.12000000    12.83000000    45.65000000
   H     -7.10000000    14.83000000    46.16000000
   H     -5.76000000    15.82000000    45.49000000
   N     -7.49000000    13.38000000    43.47000000
   C     -8.25000000    13.45000000    42.23000000
   C     -7.41000000    13.59000000    40.97000000
   O     -6.59000000    12.69000000    40.81000000
   C     -9.05000000    12.16000000    42.08000000
   C     -9.81000000    12.01000000    40.78000000
   C     -9.47000000    11.11000000    39.77000000
   C    -10.93000000    12.80000000    40.51000000
   C    -10.28000000    10.98000000    38.63000000
   C    -11.64000000    12.83000000    39.31000000
   C    -11.35000000    11.84000000    38.37000000
   H     -7.67000000    12.65000000    44.14000000
   H     -9.02000000    14.21000000    42.27000000
   H     -9.75000000    12.08000000    42.91000000
   H     -8.36000000    11.32000000    42.21000000
   H     -8.64000000    10.47000000    40.00000000
   H    -11.27000000    13.34000000    41.39000000
   H     -9.89000000    10.34000000    37.85000000
   H    -12.53000000    13.44000000    39.16000000
   H    -11.96000000    11.70000000    37.49000000
   N     -7.60000000    14.65000000    40.18000000
   C     -6.98000000    14.58000000    38.87000000
   C     -5.48000000    14.81000000    38.91000000
   O     -4.82000000    14.75000000    37.87000000
   C     -7.74000000    15.60000000    38.01000000
   C     -9.09000000    15.85000000    38.67000000
   C     -8.67000000    15.62000000    40.12000000
   H     -7.08000000    13.55000000    38.53000000
   H     -7.13000000    16.49000000    37.99000000
   H     -7.84000000    15.37000000    36.95000000
   H     -9.39000000    16.89000000    38.53000000
   H     -9.86000000    15.14000000    38.35000000
   H     -8.23000000    16.58000000    40.40000000
   H     -9.48000000    15.33000000    40.79000000
   N     -4.84000000    15.08000000    40.05000000
   C     -3.42000000    15.17000000    40.33000000
   C     -2.75000000    13.82000000    40.10000000
   O     -1.59000000    13.75000000    39.70000000
   C     -3.16000000    15.64000000    41.76000000
   C     -1.96000000    16.50000000    42.14000000
   C     -1.90000000    16.98000000    43.59000000
   O     -2.12000000    16.11000000    44.46000000
   O     -1.96000000    18.18000000    43.94000000
   H     -5.34000000    14.94000000    40.91000000
   H     -2.95000000    15.80000000    39.58000000
   H     -2.96000000    14.78000000    42.40000000
   H     -4.05000000    16.15000000    42.11000000
   H     -2.03000000    17.40000000    41.53000000
   H     -0.99000000    16.19000000    41.76000000
   N     -3.50000000    12.74000000    40.37000000
   C     -3.22000000    11.39000000    39.94000000
   H     -2.24000000    11.08700000    40.31000000
   H     -3.98100000    10.71700000    40.33500000
   H     -3.22600000    11.34600000    38.85100000
   H     -4.43000000    12.97000000    40.68000000
  Ca     -2.31800000    17.04000000    46.84000000
   O     -1.53800000    19.51000000    47.08000000
   H     -0.63800000    19.82000000    47.09000000
   H     -2.05800000    20.27000000    47.36000000
   O     -0.79800000    17.31000000    49.28000000
   H     -1.24800000    17.11000000    50.10000000
   H     -0.43800000    18.19000000    49.41000000
   O     -4.32800000    18.18000000    45.28000000
   H     -3.74800000    18.42000000    44.56000000
   H     -4.88800000    18.95000000    45.40000000

Ca 1.00



