%chk=loop4.apoCaM-CA-Ng.Init293.run43.water3.chk
%nprocshared=20
%mem=10GB
%nosave
#b3lyp/svp scf=(tight,noincore,xqc) Test 
#IOP(5/87=12) Density=Current Pop=(MK,readradii) iop(6/33=2) iop(6/42=6)

loop4.apoCaM-CA-Ng.Init293.run43.water3 

   -3  1 
   C     21.59000000    92.23000000   -10.32000000
   C     21.50000000    92.29000000   -11.84000000
   O     22.52000000    92.63000000   -12.43000000
   H     21.95900000    93.18300000    -9.94100000
   H     20.60200000    92.03300000    -9.90400000
   H     22.27400000    91.43300000   -10.02700000
   N     20.37000000    92.08000000   -12.52000000
   C     20.23000000    92.16000000   -13.96000000
   C     21.22000000    91.38000000   -14.81000000
   O     22.25000000    91.91000000   -15.21000000
   C     19.86000000    93.57000000   -14.38000000
   C     20.89000000    94.62000000   -13.97000000
   O     20.70000000    95.41000000   -13.02000000
   O     21.94000000    94.71000000   -14.63000000
   H     19.62000000    91.67000000   -11.97000000
   H     19.28000000    91.63000000   -14.07000000
   H     18.97000000    93.76000000   -13.78000000
   H     19.68000000    93.59000000   -15.46000000
   N     20.95000000    90.09000000   -15.05000000
   C     21.79000000    89.15000000   -15.75000000
   C     22.37000000    89.49000000   -17.12000000
   O     23.34000000    88.89000000   -17.57000000
   C     22.79000000    88.51000000   -14.79000000
   C     22.19000000    87.93000000   -13.51000000
   C     23.91000000    89.39000000   -14.26000000
   C     21.39000000    86.66000000   -13.83000000
   H     20.20000000    89.68000000   -14.52000000
   H     21.07000000    88.34000000   -15.87000000
   H     23.24000000    87.65000000   -15.27000000
   H     21.69000000    88.72000000   -12.95000000
   H     23.02000000    87.68000000   -12.85000000
   H     24.31000000    89.87000000   -15.15000000
   H     23.58000000    90.10000000   -13.50000000
   H     24.64000000    88.67000000   -13.89000000
   H     20.46000000    86.98000000   -14.29000000
   H     22.00000000    86.05000000   -14.49000000
   H     21.25000000    86.16000000   -12.87000000
   N     21.86000000    90.49000000   -17.84000000
   C     22.31000000    90.87000000   -19.17000000
   C     22.34000000    92.38000000   -19.34000000
   O     21.49000000    93.18000000   -18.93000000
   C     21.38000000    90.19000000   -20.17000000
   C     19.90000000    90.09000000   -19.86000000
   O     19.42000000    89.22000000   -19.10000000
   O     19.16000000    90.99000000   -20.32000000
   H     21.14000000    91.03000000   -17.38000000
   H     23.32000000    90.55000000   -19.41000000
   H     21.85000000    89.22000000   -20.36000000
   H     21.51000000    90.72000000   -21.12000000
   N     23.17000000    92.94000000   -20.22000000
   C     24.36000000    92.30000000   -20.77000000
   C     25.45000000    92.18000000   -19.72000000
   O     25.23000000    92.24000000   -18.51000000
   H     23.12000000    93.94000000   -20.27000000
   H     24.68000000    93.02000000   -21.52000000
   H     24.04000000    91.48000000   -21.40000000
   N     26.72000000    92.08000000   -20.14000000
   C     27.26000000    91.72000000   -21.44000000
   C     26.74000000    90.49000000   -22.16000000
   O     26.43000000    90.59000000   -23.35000000
   C     28.79000000    91.69000000   -21.44000000
   C     29.34000000    91.59000000   -22.85000000
   O     29.69000000    90.46000000   -23.25000000
   O     29.34000000    92.58000000   -23.62000000
   H     27.42000000    92.34000000   -19.46000000
   H     26.92000000    92.52000000   -22.09000000
   H     29.14000000    90.79000000   -20.94000000
   H     29.28000000    92.47000000   -20.85000000
   N     26.34000000    89.40000000   -21.51000000
   C     26.70000000    89.00000000   -20.16000000
   C     27.60000000    87.79000000   -20.32000000
   O     27.40000000    86.87000000   -21.11000000
   H     26.02000000    88.65000000   -22.10000000
   H     25.81000000    88.80000000   -19.57000000
   H     27.34000000    89.68000000   -19.60000000
   N     28.63000000    87.69000000   -19.46000000
   C     29.56000000    86.59000000   -19.50000000
   C     29.92000000    85.86000000   -18.21000000
   O     30.73000000    84.94000000   -18.29000000
   C     30.89000000    87.13000000   -20.01000000
   C     30.79000000    87.64000000   -21.44000000
   C     32.07000000    88.03000000   -22.16000000
   N     32.14000000    89.08000000   -22.98000000
   O     33.00000000    87.22000000   -22.11000000
   H     28.71000000    88.39000000   -18.74000000
   H     29.22000000    85.81000000   -20.19000000
   H     31.63000000    86.32000000   -19.98000000
   H     31.29000000    87.94000000   -19.39000000
   H     30.22000000    88.57000000   -21.41000000
   H     30.36000000    86.88000000   -22.08000000
   H     31.30000000    89.60000000   -23.18000000
   H     32.99000000    89.28000000   -23.49000000
   N     29.45000000    86.35000000   -17.06000000
   C     29.89000000    85.87000000   -15.77000000
   C     30.08000000    87.03000000   -14.80000000
   O     29.15000000    87.77000000   -14.48000000
   C     28.88000000    84.84000000   -15.26000000
   C     29.55000000    84.19000000   -14.05000000
   C     28.43000000    83.82000000   -16.30000000
   H     28.64000000    86.95000000   -17.08000000
   H     30.79000000    85.28000000   -15.89000000
   H     28.02000000    85.39000000   -14.86000000
   H     29.61000000    84.87000000   -13.21000000
   H     28.94000000    83.29000000   -13.89000000
   H     30.55000000    83.81000000   -14.22000000
   H     27.84000000    83.02000000   -15.88000000
   H     27.93000000    84.30000000   -17.14000000
   H     29.40000000    83.45000000   -16.65000000
   N     31.31000000    87.18000000   -14.29000000
   C     31.68000000    88.25000000   -13.38000000
   C     31.94000000    89.50000000   -14.20000000
   O     31.87000000    90.51000000   -13.51000000
   C     32.80000000    87.71000000   -12.49000000
   C     32.22000000    86.66000000   -11.56000000
   N     32.57000000    85.39000000   -11.77000000
   O     31.48000000    86.91000000   -10.60000000
   H     32.05000000    86.67000000   -14.74000000
   H     30.82000000    88.42000000   -12.73000000
   H     33.14000000    88.52000000   -11.85000000
   H     33.59000000    87.31000000   -13.12000000
   H     32.88000000    85.13000000   -12.70000000
   H     32.42000000    84.70000000   -11.05000000
   N     32.15000000    89.60000000   -15.52000000
   C     32.35000000    90.89000000   -16.15000000
   C     31.31000000    91.95000000   -15.83000000
   O     30.15000000    91.72000000   -16.15000000
   C     32.56000000    90.66000000   -17.65000000
   C     33.15000000    91.85000000   -18.36000000
   C     32.32000000    92.61000000   -19.20000000
   C     34.50000000    92.18000000   -18.16000000
   C     32.88000000    93.68000000   -19.89000000
   C     35.08000000    93.17000000   -18.96000000
   C     34.27000000    93.94000000   -19.82000000
   O     34.75000000    95.02000000   -20.49000000
   H     32.29000000    88.81000000   -16.13000000
   H     33.23000000    91.28000000   -15.65000000
   H     31.67000000    90.30000000   -18.16000000
   H     33.15000000    89.75000000   -17.79000000
   H     31.26000000    92.39000000   -19.18000000
   H     35.08000000    91.51000000   -17.55000000
   H     32.26000000    94.30000000   -20.51000000
   H     36.14000000    93.38000000   -19.01000000
   H     34.05000000    95.32000000   -21.08000000
   N     31.65000000    93.13000000   -15.31000000
   C     30.68000000    94.09000000   -14.81000000
   C     29.57000000    93.52000000   -13.95000000
   O     28.45000000    94.03000000   -13.90000000
   C     30.10000000    94.92000000   -15.96000000
   C     31.12000000    95.87000000   -16.58000000
   C     30.64000000    97.18000000   -17.18000000
   O     30.16000000    97.14000000   -18.33000000
   O     30.81000000    98.28000000   -16.62000000
   H     32.57000000    93.30000000   -14.94000000
   H     31.23000000    94.78000000   -14.18000000
   H     29.35000000    95.57000000   -15.50000000
   H     29.61000000    94.32000000   -16.72000000
   H     31.57000000    95.37000000   -17.44000000
   H     31.89000000    96.02000000   -15.82000000
   N     29.82000000    92.46000000   -13.17000000
   C     28.98000000    91.94000000   -12.11000000
   C     29.76000000    91.80000000   -10.81000000
   O     29.09000000    92.04000000    -9.80000000
   C     28.45000000    90.58000000   -12.57000000
   C     27.64000000    90.63000000   -13.86000000
   C     26.52000000    91.64000000   -13.99000000
   O     25.75000000    91.86000000   -13.03000000
   O     26.20000000    92.16000000   -15.08000000
   H     30.74000000    92.07000000   -13.23000000
   H     28.12000000    92.60000000   -12.00000000
   H     27.79000000    90.34000000   -11.74000000
   H     29.28000000    89.88000000   -12.68000000
   H     27.31000000    89.59000000   -13.97000000
   H     28.26000000    90.81000000   -14.74000000
   N     31.08000000    91.61000000   -10.85000000
   C     31.96000000    91.85000000    -9.73000000
   H     32.84200000    92.39200000   -10.07100000
   H     31.43900000    92.44200000    -8.97800000
   H     32.26500000    90.89800000    -9.29600000
   H     31.52000000    91.32000000   -11.71000000
  Ca     24.10000000    93.57000000   -14.38100000
   O     23.95000000    93.97000000   -17.05100000
   H     24.51000000    93.53000000   -17.69100000
   H     23.28000000    94.40000000   -17.58100000
   O     25.10000000    94.76000000   -12.04100000
   H     25.60000000    95.51000000   -11.72100000
   H     25.30000000    94.05000000   -11.44100000
   O     26.28000000    95.25000000   -14.91100000
   H     26.44000000    96.11000000   -15.31100000
   H     27.15000000    94.95000000   -14.64100000

Ca 1.00



