%chk=loop4.holoCaM.run49.water2.chk
%nprocshared=20
%mem=10GB
%nosave
#b3lyp/svp scf=(tight,noincore,xqc) Test 
#IOP(5/87=12) Density=Current Pop=(MK,readradii) iop(6/33=2) iop(6/42=6)

loop4.holoCaM.run49.water2 

   -3  1 
   C    100.32000000    60.13000000    20.06000000
   C    100.07000000    61.57000000    20.48000000
   O    100.07000000    62.44000000    19.62000000
   H    101.29700000    59.81000000    20.42400000
   H     99.54700000    59.48800000    20.48300000
   H    100.29700000    60.05900000    18.97300000
   N     99.85000000    61.81000000    21.78000000
   C     99.42000000    63.13000000    22.20000000
   C    100.58000000    64.11000000    22.25000000
   O    101.44000000    63.93000000    23.12000000
   C     98.56000000    63.05000000    23.46000000
   C     98.02000000    64.38000000    23.96000000
   O     97.53000000    64.42000000    25.11000000
   O     97.94000000    65.37000000    23.20000000
   H     99.93000000    61.08000000    22.47000000
   H     98.73000000    63.52000000    21.45000000
   H     99.18000000    62.55000000    24.21000000
   H     97.69000000    62.42000000    23.28000000
   N    100.63000000    65.16000000    21.43000000
   C    101.67000000    66.16000000    21.38000000
   C    101.20000000    67.55000000    21.80000000
   O    101.90000000    68.55000000    21.67000000
   C    102.41000000    66.13000000    20.04000000
   C    101.61000000    66.78000000    18.91000000
   C    102.93000000    64.80000000    19.52000000
   C    102.45000000    67.17000000    17.70000000
   H     99.83000000    65.30000000    20.83000000
   H    102.46000000    65.86000000    22.07000000
   H    103.31000000    66.73000000    20.19000000
   H    101.16000000    67.73000000    19.19000000
   H    100.81000000    66.09000000    18.64000000
   H    103.28000000    64.29000000    20.43000000
   H    102.11000000    64.23000000    19.07000000
   H    103.66000000    64.82000000    18.71000000
   H    101.81000000    67.75000000    17.04000000
   H    103.29000000    67.79000000    18.01000000
   H    102.72000000    66.30000000    17.10000000
   N    100.02000000    67.64000000    22.41000000
   C     99.57000000    68.80000000    23.15000000
   C     99.38000000    68.67000000    24.65000000
   O     99.84000000    69.50000000    25.44000000
   C     98.35000000    69.40000000    22.46000000
   C     97.24000000    68.38000000    22.28000000
   O     96.88000000    67.96000000    21.15000000
   O     96.57000000    68.10000000    23.29000000
   H     99.60000000    66.74000000    22.60000000
   H    100.39000000    69.51000000    23.08000000
   H     98.70000000    69.70000000    21.47000000
   H     97.97000000    70.29000000    22.96000000
   N     98.84000000    67.52000000    25.06000000
   C     98.70000000    67.01000000    26.41000000
   C     97.43000000    67.11000000    27.23000000
   O     97.53000000    66.97000000    28.45000000
   H     98.39000000    66.97000000    24.34000000
   H     99.42000000    67.59000000    26.99000000
   H     99.03000000    65.97000000    26.37000000
   N     96.30000000    67.47000000    26.61000000
   C     94.97000000    67.42000000    27.18000000
   C     94.57000000    65.98000000    27.49000000
   O     93.52000000    65.79000000    28.09000000
   C     93.94000000    68.16000000    26.33000000
   C     93.89000000    67.76000000    24.86000000
   O     93.40000000    68.60000000    24.07000000
   O     94.24000000    66.61000000    24.53000000
   H     96.36000000    67.72000000    25.64000000
   H     95.01000000    67.85000000    28.18000000
   H     94.21000000    69.21000000    26.46000000
   H     93.00000000    68.19000000    26.88000000
   N     95.25000000    64.97000000    26.94000000
   C     94.78000000    63.60000000    26.98000000
   C     93.42000000    63.33000000    26.34000000
   O     92.76000000    62.35000000    26.66000000
   H     96.04000000    65.19000000    26.36000000
   H     94.73000000    63.29000000    28.02000000
   H     95.51000000    62.95000000    26.49000000
   N     93.04000000    64.19000000    25.40000000
   C     91.85000000    64.09000000    24.58000000
   C     92.17000000    64.26000000    23.10000000
   O     92.90000000    65.17000000    22.71000000
   C     90.82000000    65.12000000    25.03000000
   C     90.38000000    64.88000000    26.48000000
   C     89.16000000    65.66000000    26.94000000
   N     88.81000000    65.61000000    28.23000000
   O     88.45000000    66.25000000    26.13000000
   H     93.54000000    65.07000000    25.34000000
   H     91.33000000    63.13000000    24.63000000
   H     89.93000000    65.01000000    24.42000000
   H     91.35000000    66.07000000    25.01000000
   H     91.24000000    65.07000000    27.12000000
   H     90.14000000    63.82000000    26.62000000
   H     89.33000000    65.15000000    28.97000000
   H     87.91000000    66.03000000    28.42000000
   N     91.57000000    63.46000000    22.22000000
   C     91.75000000    63.66000000    20.80000000
   C     90.72000000    64.63000000    20.24000000
   O     89.50000000    64.52000000    20.28000000
   C     91.89000000    62.37000000    19.99000000
   C     93.19000000    61.64000000    20.31000000
   C     90.63000000    61.51000000    20.08000000
   H     90.78000000    62.90000000    22.52000000
   H     92.74000000    64.08000000    20.62000000
   H     91.92000000    62.77000000    18.97000000
   H     93.11000000    61.15000000    21.28000000
   H     93.37000000    60.77000000    19.68000000
   H     93.99000000    62.38000000    20.38000000
   H     89.77000000    62.06000000    19.70000000
   H     90.74000000    60.61000000    19.47000000
   H     90.39000000    61.25000000    21.11000000
   N     91.24000000    65.67000000    19.58000000
   C     90.52000000    66.65000000    18.80000000
   C     90.22000000    66.21000000    17.37000000
   O     90.71000000    65.18000000    16.92000000
   C     91.21000000    68.01000000    18.92000000
   C     92.19000000    68.35000000    17.80000000
   N     93.48000000    68.12000000    18.06000000
   O     91.87000000    68.80000000    16.70000000
   H     92.25000000    65.76000000    19.59000000
   H     89.56000000    66.77000000    19.30000000
   H     91.73000000    68.05000000    19.88000000
   H     90.41000000    68.75000000    18.85000000
   H     93.63000000    67.44000000    18.79000000
   H     94.14000000    68.24000000    17.31000000
   N     89.41000000    66.92000000    16.58000000
   C     89.00000000    66.52000000    15.25000000
   C     90.16000000    66.20000000    14.31000000
   O     90.14000000    65.34000000    13.44000000
   C     88.23000000    67.68000000    14.62000000
   C     87.81000000    67.48000000    13.19000000
   C     86.75000000    66.62000000    12.88000000
   C     88.47000000    68.13000000    12.14000000
   C     86.22000000    66.42000000    11.60000000
   C     87.92000000    68.01000000    10.86000000
   C     86.85000000    67.13000000    10.57000000
   O     86.37000000    66.91000000     9.31000000
   H     88.90000000    67.71000000    16.95000000
   H     88.37000000    65.63000000    15.24000000
   H     88.82000000    68.60000000    14.65000000
   H     87.23000000    67.82000000    15.02000000
   H     86.17000000    66.08000000    13.62000000
   H     89.30000000    68.79000000    12.32000000
   H     85.41000000    65.73000000    11.38000000
   H     88.37000000    68.53000000    10.03000000
   H     86.96000000    67.32000000     8.68000000
   N     91.23000000    66.97000000    14.48000000
   C     92.45000000    66.89000000    13.70000000
   C     93.37000000    65.73000000    14.05000000
   O     93.90000000    65.09000000    13.14000000
   C     93.16000000    68.25000000    13.73000000
   C     92.18000000    69.34000000    13.31000000
   C     92.93000000    70.66000000    13.24000000
   O     93.83000000    70.95000000    14.06000000
   O     92.55000000    71.52000000    12.42000000
   H     91.19000000    67.61000000    15.26000000
   H     92.20000000    66.62000000    12.68000000
   H     94.05000000    68.16000000    13.10000000
   H     93.48000000    68.41000000    14.76000000
   H     91.37000000    69.49000000    14.03000000
   H     91.76000000    69.06000000    12.35000000
   N     93.32000000    65.26000000    15.30000000
   C     93.82000000    63.98000000    15.74000000
   C     92.83000000    62.87000000    15.40000000
   O     93.13000000    61.68000000    15.45000000
   C     94.06000000    63.99000000    17.25000000
   C     95.14000000    64.93000000    17.76000000
   C     95.07000000    65.09000000    19.27000000
   O     94.11000000    65.71000000    19.77000000
   O     96.01000000    64.78000000    20.04000000
   H     92.96000000    65.93000000    15.97000000
   H     94.76000000    63.72000000    15.24000000
   H     94.38000000    63.00000000    17.59000000
   H     93.14000000    64.20000000    17.81000000
   H     95.21000000    65.90000000    17.27000000
   H     96.12000000    64.51000000    17.54000000
   N     91.57000000    63.17000000    15.08000000
   C     90.51000000    62.22000000    14.83000000
   H     89.64700000    62.74000000    14.41400000
   H     90.85600000    61.46700000    14.12100000
   H     90.22600000    61.73700000    15.76500000
   H     91.34000000    64.16000000    15.14000000
  Ca     95.47000000    65.94000000    22.33000000
   O     95.26000000    63.12000000    22.60000000
   H     95.33000000    62.39000000    23.21000000
   H     95.50000000    62.75000000    21.75000000
   O     94.07000000    68.08000000    21.58000000
   H     94.24000000    68.87000000    21.07000000
   H     93.80000000    68.41000000    22.44000000

Ca 1.00



