%chk=loop3.holoCaM.run11.water2.chk
%nprocshared=20
%mem=10GB
%nosave
#b3lyp/svp scf=(tight,noincore,xqc) Test 
#IOP(5/87=12) Density=Current Pop=(MK,readradii) iop(6/33=2) iop(6/42=6)

loop3.holoCaM.run11.water2 

   0  1 
   C     47.15000000    44.40000000    28.41000000
   C     48.47000000    43.81000000    28.89000000
   O     48.94000000    44.04000000    30.00000000
   H     46.41300000    44.33800000    29.21000000
   H     47.29700000    45.44400000    28.13200000
   H     46.79400000    43.84000000    27.54500000
   N     48.93000000    42.82000000    28.12000000
   C     50.15000000    42.08000000    28.34000000
   C     51.34000000    42.97000000    28.01000000
   O     52.07000000    42.85000000    27.03000000
   C     50.14000000    40.76000000    27.56000000
   C     51.29000000    39.82000000    27.88000000
   O     51.90000000    40.03000000    28.95000000
   O     51.55000000    38.76000000    27.27000000
   H     48.41000000    42.60000000    27.28000000
   H     50.26000000    41.82000000    29.39000000
   H     50.05000000    40.93000000    26.49000000
   H     49.29000000    40.21000000    27.97000000
   N     51.69000000    43.85000000    28.95000000
   C     52.77000000    44.81000000    28.82000000
   C     54.18000000    44.37000000    29.17000000
   O     55.07000000    45.22000000    29.11000000
   C     52.40000000    45.89000000    29.84000000
   C     51.08000000    46.60000000    29.54000000
   C     50.69000000    47.86000000    30.31000000
   C     50.97000000    47.76000000    31.81000000
   N     50.54000000    46.56000000    32.55000000
   H     51.03000000    44.01000000    29.70000000
   H     52.91000000    45.25000000    27.83000000
   H     53.15000000    46.68000000    29.85000000
   H     52.36000000    45.44000000    30.83000000
   H     50.23000000    45.92000000    29.62000000
   H     51.04000000    46.85000000    28.48000000
   H     49.61000000    47.90000000    30.14000000
   H     51.22000000    48.74000000    29.97000000
   H     50.51000000    48.67000000    32.20000000
   H     52.04000000    47.84000000    31.96000000
   H     50.66000000    46.90000000    33.49000000
   H     49.60000000    46.26000000    32.34000000
   H     51.08000000    45.74000000    32.32000000
   N     54.33000000    43.06000000    29.39000000
   C     55.46000000    42.33000000    29.93000000
   C     55.72000000    41.14000000    29.02000000
   O     56.67000000    40.38000000    29.17000000
   C     55.13000000    41.93000000    31.37000000
   C     53.93000000    41.00000000    31.43000000
   O     52.77000000    41.47000000    31.53000000
   O     53.92000000    39.77000000    31.22000000
   H     53.46000000    42.62000000    29.63000000
   H     56.34000000    42.94000000    29.78000000
   H     55.03000000    42.82000000    31.99000000
   H     56.00000000    41.38000000    31.73000000
   N     54.70000000    40.88000000    28.20000000
   C     54.86000000    39.81000000    27.24000000
   C     55.04000000    38.37000000    27.71000000
   O     55.41000000    37.50000000    26.93000000
   H     53.76000000    41.25000000    28.29000000
   H     55.73000000    40.08000000    26.65000000
   H     54.10000000    39.79000000    26.46000000
   N     54.68000000    38.11000000    28.97000000
   C     54.94000000    36.78000000    29.48000000
   C     54.05000000    35.72000000    28.86000000
   O     54.23000000    34.55000000    29.18000000
   C     54.94000000    36.88000000    31.00000000
   C     53.59000000    36.78000000    31.69000000
   N     53.60000000    36.48000000    32.99000000
   O     52.54000000    37.04000000    31.11000000
   H     54.22000000    38.81000000    29.53000000
   H     55.96000000    36.52000000    29.19000000
   H     55.46000000    37.79000000    31.31000000
   H     55.56000000    36.07000000    31.38000000
   H     54.47000000    36.36000000    33.48000000
   H     52.72000000    36.37000000    33.48000000
   N     53.03000000    36.10000000    28.09000000
   C     52.15000000    35.20000000    27.38000000
   C     50.71000000    35.14000000    27.89000000
   O     50.00000000    34.21000000    27.54000000
   H     52.97000000    37.06000000    27.79000000
   H     52.41000000    34.14000000    27.44000000
   H     52.15000000    35.32000000    26.29000000
   N     50.22000000    36.01000000    28.77000000
   C     48.95000000    35.88000000    29.47000000
   C     48.40000000    37.20000000    29.97000000
   O     49.17000000    38.16000000    29.91000000
   C     49.15000000    35.06000000    30.74000000
   C     49.72000000    33.66000000    30.65000000
   C     51.02000000    33.40000000    31.09000000
   C     48.94000000    32.57000000    30.27000000
   C     51.54000000    32.11000000    31.27000000
   C     49.46000000    31.27000000    30.33000000
   C     50.73000000    31.02000000    30.88000000
   O     51.18000000    29.74000000    30.99000000
   H     50.82000000    36.79000000    29.00000000
   H     48.18000000    35.49000000    28.80000000
   H     48.21000000    34.89000000    31.26000000
   H     49.72000000    35.64000000    31.46000000
   H     51.64000000    34.24000000    31.37000000
   H     47.98000000    32.69000000    29.78000000
   H     52.54000000    32.03000000    31.68000000
   H     48.83000000    30.43000000    30.05000000
   H     50.47000000    29.17000000    30.68000000
   N     47.14000000    37.28000000    30.39000000
   C     46.39000000    38.42000000    30.91000000
   C     45.63000000    38.01000000    32.16000000
   O     44.81000000    37.10000000    32.10000000
   C     45.50000000    38.93000000    29.79000000
   C     46.18000000    39.49000000    28.54000000
   C     44.51000000    39.97000000    30.32000000
   C     45.27000000    39.72000000    27.34000000
   H     46.61000000    36.43000000    30.28000000
   H     47.12000000    39.19000000    31.15000000
   H     44.91000000    38.06000000    29.49000000
   H     47.03000000    38.87000000    28.27000000
   H     46.72000000    40.43000000    28.64000000
   H     43.69000000    40.12000000    29.62000000
   H     44.03000000    39.72000000    31.26000000
   H     45.08000000    40.88000000    30.50000000
   H     44.61000000    40.58000000    27.48000000
   H     45.91000000    39.96000000    26.48000000
   H     44.70000000    38.84000000    27.05000000
   N     45.81000000    38.85000000    33.18000000
   C     45.24000000    38.77000000    34.51000000
   C     44.17000000    39.82000000    34.79000000
   O     44.06000000    40.85000000    34.13000000
   C     46.37000000    38.82000000    35.54000000
   O     46.98000000    40.09000000    35.44000000
   H     46.36000000    39.65000000    32.89000000
   H     44.63000000    37.88000000    34.64000000
   H     46.96000000    37.93000000    35.32000000
   H     46.02000000    38.69000000    36.56000000
   H     47.55000000    40.01000000    34.67000000
   N     43.42000000    39.64000000    35.88000000
   C     42.47000000    40.60000000    36.41000000
   C     43.10000000    41.98000000    36.58000000
   O     42.50000000    43.00000000    36.25000000
   C     41.83000000    40.18000000    37.73000000
   H     43.63000000    38.86000000    36.48000000
   H     41.69000000    40.76000000    35.66000000
   H     42.46000000    40.33000000    38.60000000
   H     40.90000000    40.75000000    37.84000000
   H     41.55000000    39.13000000    37.65000000
   N     44.36000000    42.03000000    36.99000000
   C     45.10000000    43.26000000    37.22000000
   C     45.43000000    43.95000000    35.90000000
   O     45.39000000    45.17000000    35.76000000
   C     46.45000000    42.99000000    37.88000000
   H     44.81000000    41.13000000    36.97000000
   H     44.49000000    43.99000000    37.74000000
   H     46.34000000    42.49000000    38.84000000
   H     47.11000000    42.40000000    37.24000000
   H     46.94000000    43.94000000    38.08000000
   N     45.69000000    43.25000000    34.79000000
   C     45.90000000    43.77000000    33.46000000
   C     44.61000000    44.31000000    32.85000000
   O     44.64000000    45.33000000    32.17000000
   C     46.63000000    42.68000000    32.66000000
   C     48.05000000    42.45000000    33.17000000
   C     48.69000000    41.21000000    32.56000000
   O     48.43000000    40.08000000    33.03000000
   O     49.45000000    41.40000000    31.59000000
   H     45.57000000    42.24000000    34.82000000
   H     46.61000000    44.59000000    33.53000000
   H     46.72000000    43.00000000    31.62000000
   H     46.03000000    41.77000000    32.63000000
   H     48.06000000    42.32000000    34.25000000
   H     48.68000000    43.33000000    33.03000000
   N     43.48000000    43.65000000    33.08000000
   C     42.14000000    44.10000000    32.73000000
   H     41.47800000    43.96900000    33.58600000
   H     42.17100000    45.15400000    32.45300000
   H     41.76700000    43.51400000    31.89000000
   H     43.52000000    42.83000000    33.67000000
  Ca     51.08000000    39.36000000    31.34000000
   O     51.91000000    39.71000000    33.97000000
   H     52.86000000    39.79000000    34.01000000
   H     51.59000000    40.17000000    34.74000000
   O     49.67000000    37.79000000    32.96000000
   H     49.14000000    38.58000000    33.12000000
   H     49.20000000    37.10000000    33.42000000

Ca 1.00



