%chk=loop3.apoCaM-CA-Ng.Init295.run69.water4.chk
%nprocshared=20
%mem=10GB
%nosave
#b3lyp/svp scf=(tight,noincore,xqc) Test 
#IOP(5/87=12) Density=Current Pop=(MK,readradii) iop(6/33=2) iop(6/42=6)

loop3.apoCaM-CA-Ng.Init295.run69.water4 

   0  1 
   C     11.11000000   -19.27000000    39.33000000
   C     11.03000000   -20.50000000    40.23000000
   O     10.48000000   -20.38000000    41.32000000
   H     12.15500000   -19.01600000    39.15500000
   H     10.62400000   -19.48400000    38.37800000
   H     10.60900000   -18.43200000    39.81400000
   N     11.43000000   -21.70000000    39.81000000
   C     11.18000000   -22.93000000    40.54000000
   C     12.43000000   -23.63000000    41.06000000
   O     13.57000000   -23.48000000    40.63000000
   C     10.51000000   -23.85000000    39.53000000
   C     10.19000000   -25.25000000    40.04000000
   O     11.06000000   -26.13000000    40.17000000
   O      9.01000000   -25.62000000    40.26000000
   H     12.00000000   -21.68000000    38.98000000
   H     10.48000000   -22.78000000    41.36000000
   H     11.18000000   -24.06000000    38.70000000
   H      9.58000000   -23.36000000    39.24000000
   N     12.31000000   -24.20000000    42.27000000
   C     13.39000000   -24.74000000    43.08000000
   C     14.18000000   -25.92000000    42.52000000
   O     15.32000000   -26.09000000    42.95000000
   C     12.85000000   -24.87000000    44.50000000
   C     12.06000000   -26.18000000    44.56000000
   C     11.54000000   -26.57000000    45.94000000
   C     10.55000000   -25.52000000    46.44000000
   N     10.21000000   -25.98000000    47.79000000
   H     11.40000000   -24.17000000    42.70000000
   H     14.12000000   -23.93000000    43.09000000
   H     12.20000000   -24.02000000    44.70000000
   H     13.65000000   -24.94000000    45.24000000
   H     12.78000000   -26.95000000    44.31000000
   H     11.24000000   -26.09000000    43.84000000
   H     12.32000000   -26.66000000    46.70000000
   H     11.01000000   -27.52000000    45.83000000
   H      9.67000000   -25.54000000    45.80000000
   H     11.08000000   -24.56000000    46.55000000
   H      9.57000000   -25.28000000    48.12000000
   H      9.67000000   -26.83000000    47.73000000
   H     10.99000000   -26.13000000    48.42000000
   N     13.67000000   -26.62000000    41.51000000
   C     14.30000000   -27.61000000    40.66000000
   C     14.17000000   -27.38000000    39.16000000
   O     14.73000000   -28.07000000    38.32000000
   C     13.83000000   -29.03000000    40.98000000
   C     12.33000000   -29.19000000    40.79000000
   O     11.83000000   -29.20000000    39.65000000
   O     11.55000000   -29.12000000    41.77000000
   H     12.76000000   -26.31000000    41.22000000
   H     15.38000000   -27.51000000    40.78000000
   H     14.09000000   -29.11000000    42.04000000
   H     14.43000000   -29.71000000    40.38000000
   N     13.37000000   -26.37000000    38.80000000
   C     13.35000000   -25.76000000    37.49000000
   C     12.29000000   -26.39000000    36.59000000
   O     11.80000000   -25.67000000    35.73000000
   H     12.82000000   -25.95000000    39.54000000
   H     14.28000000   -25.71000000    36.91000000
   H     13.01000000   -24.77000000    37.76000000
   N     11.73000000   -27.57000000    36.88000000
   C     10.63000000   -28.16000000    36.14000000
   C      9.34000000   -27.67000000    36.78000000
   O      9.15000000   -27.65000000    38.00000000
   C     10.83000000   -29.67000000    36.14000000
   C      9.57000000   -30.39000000    35.67000000
   N      9.53000000   -30.73000000    34.38000000
   O      8.61000000   -30.53000000    36.41000000
   H     12.05000000   -28.03000000    37.72000000
   H     10.67000000   -27.83000000    35.10000000
   H     10.92000000   -29.93000000    37.19000000
   H     11.73000000   -29.94000000    35.60000000
   H     10.36000000   -30.63000000    33.80000000
   H      8.72000000   -31.28000000    34.14000000
   N      8.37000000   -27.21000000    35.99000000
   C      7.10000000   -26.72000000    36.49000000
   C      5.96000000   -27.70000000    36.72000000
   O      4.84000000   -27.27000000    36.97000000
   H      8.42000000   -27.20000000    34.98000000
   H      6.81000000   -25.95000000    35.78000000
   H      7.18000000   -26.16000000    37.43000000
   N      6.19000000   -29.02000000    36.62000000
   C      5.07000000   -29.93000000    36.74000000
   C      4.80000000   -30.23000000    38.21000000
   O      5.66000000   -30.27000000    39.08000000
   C      5.42000000   -31.24000000    36.04000000
   C      4.41000000   -32.37000000    35.99000000
   C      4.64000000   -33.60000000    36.61000000
   C      3.15000000   -32.17000000    35.41000000
   C      3.67000000   -34.60000000    36.67000000
   C      2.22000000   -33.21000000    35.37000000
   C      2.45000000   -34.47000000    35.96000000
   O      1.57000000   -35.51000000    35.94000000
   H      7.09000000   -29.43000000    36.44000000
   H      4.24000000   -29.51000000    36.18000000
   H      6.30000000   -31.64000000    36.55000000
   H      5.80000000   -30.96000000    35.06000000
   H      5.66000000   -33.70000000    36.97000000
   H      2.94000000   -31.23000000    34.91000000
   H      3.95000000   -35.54000000    37.12000000
   H      1.32000000   -33.08000000    34.79000000
   H      0.80000000   -35.26000000    35.42000000
   N      3.52000000   -30.38000000    38.54000000
   C      2.83000000   -30.58000000    39.80000000
   C      3.17000000   -31.84000000    40.59000000
   O      4.14000000   -32.54000000    40.32000000
   C      2.84000000   -29.29000000    40.62000000
   C      4.01000000   -29.29000000    41.61000000
   C      1.46000000   -28.93000000    41.17000000
   C      4.25000000   -27.88000000    42.15000000
   H      2.90000000   -30.41000000    37.74000000
   H      1.79000000   -30.75000000    39.53000000
   H      3.04000000   -28.47000000    39.93000000
   H      4.91000000   -29.66000000    41.11000000
   H      3.83000000   -30.04000000    42.37000000
   H      1.51000000   -27.98000000    41.71000000
   H      0.76000000   -28.89000000    40.34000000
   H      1.11000000   -29.67000000    41.90000000
   H      5.22000000   -27.91000000    42.65000000
   H      4.22000000   -27.14000000    41.35000000
   H      3.48000000   -27.68000000    42.89000000
   N      2.38000000   -32.18000000    41.61000000
   C      2.64000000   -33.33000000    42.46000000
   C      1.51000000   -34.34000000    42.51000000
   O      1.69000000   -35.44000000    43.04000000
   C      2.97000000   -32.82000000    43.86000000
   O      1.96000000   -31.93000000    44.27000000
   H      1.56000000   -31.62000000    41.80000000
   H      3.46000000   -33.92000000    42.04000000
   H      3.90000000   -32.26000000    43.75000000
   H      3.04000000   -33.62000000    44.60000000
   H      2.30000000   -31.42000000    45.00000000
   N      0.36000000   -33.94000000    41.96000000
   C     -0.90000000   -34.61000000    41.75000000
   C     -1.53000000   -35.33000000    42.93000000
   O     -1.92000000   -36.49000000    42.84000000
   C     -0.74000000   -35.54000000    40.55000000
   H      0.37000000   -33.04000000    41.51000000
   H     -1.61000000   -33.86000000    41.39000000
   H     -1.68000000   -36.09000000    40.41000000
   H     -0.58000000   -34.85000000    39.72000000
   H      0.10000000   -36.20000000    40.78000000
   N     -1.54000000   -34.87000000    44.19000000
   C     -1.25000000   -33.55000000    44.70000000
   C     -2.60000000   -32.94000000    45.06000000
   O     -3.57000000   -33.69000000    45.16000000
   C     -0.33000000   -33.62000000    45.91000000
   H     -2.09000000   -35.40000000    44.85000000
   H     -0.70000000   -32.94000000    43.99000000
   H     -0.83000000   -34.37000000    46.52000000
   H      0.63000000   -34.12000000    45.72000000
   H     -0.14000000   -32.68000000    46.42000000
   N     -2.76000000   -31.65000000    45.34000000
   C     -1.90000000   -30.52000000    45.06000000
   C     -2.51000000   -29.58000000    44.02000000
   O     -1.97000000   -29.22000000    42.98000000
   C     -1.24000000   -29.75000000    46.20000000
   C     -0.17000000   -28.76000000    45.78000000
   C      0.39000000   -27.99000000    46.97000000
   O      1.27000000   -28.62000000    47.60000000
   O      0.04000000   -26.83000000    47.27000000
   H     -3.65000000   -31.33000000    45.70000000
   H     -1.06000000   -30.85000000    44.45000000
   H     -0.85000000   -30.49000000    46.90000000
   H     -1.98000000   -29.23000000    46.81000000
   H     -0.52000000   -28.07000000    45.01000000
   H      0.62000000   -29.38000000    45.34000000
   N     -3.76000000   -29.20000000    44.28000000
   C     -4.51000000   -28.24000000    43.50000000
   H     -5.42500000   -27.97700000    44.03100000
   H     -3.90800000   -27.34400000    43.34900000
   H     -4.76400000   -28.67500000    42.53400000
   H     -4.14000000   -29.52000000    45.17000000
  Ca      9.47000000   -28.11900000    40.57000000
   O      8.35000000   -30.40900000    39.02000000
   H      8.44000000   -30.47900000    38.07000000
   H      7.41000000   -30.46900000    39.18000000
   O      6.78000000   -27.89900000    39.96000000
   H      6.10000000   -28.56900000    39.90000000
   H      6.32000000   -27.06900000    39.80000000
   O      8.28000000   -29.98900000    42.21000000
   H      7.80000000   -30.72900000    41.84000000
   H      8.42000000   -30.21900000    43.13000000
   O      9.17000000   -27.18900000    42.99000000
   H      8.62000000   -26.47900000    43.30000000
   H      9.10000000   -27.86900000    43.67000000

Ca 1.00



