%chk=loop2.holoCaM-CaMKII.run82.water2.chk
%nprocshared=20
%mem=10GB
%nosave
#b3lyp/svp scf=(tight,noincore,xqc) Test 
#IOP(5/87=12) Density=Current Pop=(MK,readradii) iop(6/33=2) iop(6/42=6)

loop2.holoCaM-CaMKII.run82.water2 

   -2  1 
   C     43.34000000    71.12000000    80.40600000
   C     44.48000000    72.07000000    80.74600000
   O     44.56000000    72.40000000    81.92600000
   H     42.48900000    71.69200000    80.03600000
   H     43.66700000    70.41900000    79.63800000
   H     43.04600000    70.57000000    81.30000000
   N     45.27000000    72.50000000    79.75600000
   C     46.35000000    73.42000000    80.02600000
   C     46.04000000    74.89000000    80.24600000
   O     45.28000000    75.53000000    79.51600000
   C     47.47000000    73.34000000    78.98600000
   C     48.63000000    74.29000000    79.20600000
   O     49.41000000    74.15000000    80.17600000
   O     48.80000000    75.08000000    78.25600000
   H     45.14000000    72.07000000    78.85600000
   H     46.86000000    73.12000000    80.94600000
   H     47.29000000    73.43000000    77.91600000
   H     47.94000000    72.36000000    78.96600000
   N     46.71000000    75.45000000    81.24600000
   C     46.62000000    76.88000000    81.47600000
   C     47.95000000    77.61000000    81.47600000
   O     47.95000000    78.72000000    82.00600000
   C     45.81000000    76.96000000    82.76600000
   H     47.39000000    74.93000000    81.78600000
   H     46.07000000    77.32000000    80.64600000
   H     44.84000000    76.49000000    82.58600000
   H     46.29000000    76.51000000    83.62600000
   H     45.74000000    78.02000000    83.00600000
   N     49.08000000    77.13000000    80.94600000
   C     50.35000000    77.81000000    80.95600000
   C     51.40000000    77.43000000    79.91600000
   O     52.33000000    78.21000000    79.75600000
   C     51.01000000    77.56000000    82.30600000
   C     51.33000000    76.15000000    82.78600000
   O     51.25000000    75.26000000    81.91600000
   O     51.60000000    75.92000000    83.98600000
   H     49.10000000    76.18000000    80.59600000
   H     50.19000000    78.88000000    80.83600000
   H     50.42000000    77.98000000    83.12600000
   H     51.95000000    78.11000000    82.27600000
   N     51.33000000    76.28000000    79.23600000
   C     52.27000000    75.83000000    78.23600000
   C     53.56000000    75.19000000    78.74600000
   O     54.48000000    75.00000000    77.94600000
   H     50.45000000    75.79000000    79.26600000
   H     52.70000000    76.71000000    77.74600000
   H     51.78000000    75.12000000    77.56600000
   N     53.57000000    74.78000000    80.01600000
   C     54.72000000    74.30000000    80.74600000
   C     55.17000000    72.89000000    80.39600000
   O     56.31000000    72.53000000    80.68600000
   C     54.60000000    74.68000000    82.21600000
   C     53.83000000    73.68000000    83.06600000
   N     53.90000000    73.74000000    84.40600000
   O     53.03000000    72.89000000    82.56600000
   H     52.74000000    74.99000000    80.55600000
   H     55.50000000    74.94000000    80.32600000
   H     54.08000000    75.62000000    82.34600000
   H     55.63000000    74.72000000    82.57600000
   H     54.46000000    74.40000000    84.90600000
   H     53.23000000    73.19000000    84.92600000
   N     54.32000000    72.13000000    79.72600000
   C     54.61000000    70.82000000    79.17600000
   C     54.13000000    69.64000000    80.01600000
   O     54.56000000    68.52000000    79.76600000
   H     53.43000000    72.59000000    79.56600000
   H     55.67000000    70.65000000    79.02600000
   H     54.24000000    70.76000000    78.14600000
   N     53.46000000    69.98000000    81.11600000
   C     53.02000000    69.07000000    82.15600000
   C     51.59000000    69.26000000    82.64600000
   O     51.05000000    70.36000000    82.55600000
   C     53.94000000    69.24000000    83.36600000
   C     55.18000000    68.36000000    83.35600000
   O     54.34000000    70.55000000    83.71600000
   H     53.14000000    70.94000000    81.13600000
   H     53.11000000    68.01000000    81.94600000
   H     53.39000000    68.86000000    84.22600000
   H     53.66000000    71.15000000    83.40600000
   H     55.83000000    68.67000000    82.53600000
   H     55.76000000    68.67000000    84.22600000
   H     54.93000000    67.30000000    83.30600000
   N     50.96000000    68.26000000    83.26600000
   C     49.74000000    68.45000000    84.02600000
   C     50.15000000    69.03000000    85.37600000
   O     50.86000000    68.41000000    86.15600000
   C     48.85000000    67.21000000    84.08600000
   C     48.31000000    66.97000000    82.68600000
   C     47.79000000    67.53000000    85.12600000
   C     48.04000000    65.49000000    82.41600000
   H     51.51000000    67.46000000    83.56600000
   H     49.08000000    69.11000000    83.46600000
   H     49.49000000    66.38000000    84.38600000
   H     48.96000000    67.42000000    81.93600000
   H     47.34000000    67.47000000    82.62600000
   H     48.28000000    67.59000000    86.09600000
   H     47.38000000    68.50000000    84.83600000
   H     47.01000000    66.77000000    85.17600000
   H     48.98000000    64.94000000    82.46600000
   H     47.51000000    65.09000000    83.28600000
   H     47.55000000    65.26000000    81.47600000
   N     49.66000000    70.24000000    85.66600000
   C     49.76000000    70.78000000    87.00600000
   C     48.54000000    70.41000000    87.84600000
   O     47.53000000    69.91000000    87.35600000
   C     49.91000000    72.30000000    86.94600000
   C     51.05000000    72.68000000    86.00600000
   O     50.79000000    72.95000000    84.81600000
   O     52.18000000    72.86000000    86.50600000
   H     49.14000000    70.69000000    84.92600000
   H     50.57000000    70.33000000    87.56600000
   H     50.11000000    72.77000000    87.91600000
   H     49.01000000    72.65000000    86.45600000
   N     48.51000000    70.56000000    89.16600000
   C     47.46000000    70.05000000    90.03600000
   C     46.14000000    70.80000000    89.87600000
   O     45.12000000    70.12000000    89.83600000
   C     47.90000000    70.12000000    91.49600000
   C     46.83000000    69.78000000    92.49600000
   C     46.48000000    70.71000000    93.47600000
   C     46.20000000    68.53000000    92.49600000
   C     45.52000000    70.40000000    94.45600000
   C     45.17000000    68.22000000    93.39600000
   C     44.81000000    69.20000000    94.32600000
   H     49.44000000    70.71000000    89.50600000
   H     47.27000000    69.01000000    89.78600000
   H     48.38000000    71.08000000    91.71600000
   H     48.67000000    69.35000000    91.57600000
   H     46.99000000    71.66000000    93.47600000
   H     46.52000000    67.78000000    91.79600000
   H     45.33000000    71.09000000    95.26600000
   H     44.65000000    67.29000000    93.22600000
   H     43.98000000    69.06000000    94.99600000
   N     46.10000000    72.12000000    89.67600000
   C     44.93000000    72.88000000    89.30600000
   C     44.31000000    72.53000000    87.96600000
   O     43.11000000    72.74000000    87.76600000
   C     45.41000000    74.33000000    89.38600000
   C     46.62000000    74.35000000    90.31600000
   C     47.21000000    73.06000000    89.74600000
   H     44.23000000    72.60000000    90.09600000
   H     45.71000000    74.67000000    88.39600000
   H     44.65000000    75.04000000    89.70600000
   H     47.25000000    75.20000000    90.05600000
   H     46.46000000    74.16000000    91.37600000
   H     47.59000000    73.25000000    88.74600000
   H     48.01000000    72.77000000    90.42600000
   N     45.05000000    71.77000000    87.14600000
   C     44.67000000    71.18000000    85.88600000
   C     44.22000000    69.73000000    86.02600000
   O     43.18000000    69.36000000    85.49600000
   C     45.92000000    71.21000000    85.00600000
   C     46.54000000    72.58000000    84.78600000
   C     47.67000000    72.64000000    83.76600000
   O     47.96000000    73.75000000    83.26600000
   O     48.34000000    71.65000000    83.40600000
   H     45.98000000    71.55000000    87.46600000
   H     43.89000000    71.81000000    85.45600000
   H     45.58000000    70.80000000    84.05600000
   H     46.71000000    70.50000000    85.25600000
   H     47.00000000    72.89000000    85.72600000
   H     45.72000000    73.26000000    84.55600000
   N     44.88000000    68.95000000    86.88600000
   C     44.36000000    67.69000000    87.37600000
   H     43.37500000    67.51200000    86.94400000
   H     45.03300000    66.88200000    87.08900000
   H     44.27900000    67.72800000    88.46200000
   H     45.80000000    69.27000000    87.15600000
  Ca     50.32000000    72.94000000    82.37000000
   O     48.62000000    70.87000000    80.79000000
   H     48.05000000    71.06000000    81.53000000
   H     48.08000000    70.36000000    80.19000000
   O     51.44000000    71.52000000    80.16000000
   H     50.70000000    70.92000000    80.26000000
   H     51.27000000    71.96000000    79.32000000

Ca 1.00



