%chk=loop2.apoCaM-CA-Ng.Init295.run88.water3.chk
%nprocshared=20
%mem=10GB
%nosave
#b3lyp/svp scf=(tight,noincore,xqc) Test 
#IOP(5/87=12) Density=Current Pop=(MK,readradii) iop(6/33=2) iop(6/42=6)

loop2.apoCaM-CA-Ng.Init295.run88.water3 

   -2  1 
   C    116.65000000    10.33000000    74.29000000
   C    117.23000000    10.49000000    75.69000000
   O    116.55000000    10.97000000    76.59000000
   H    115.76200000    10.95500000    74.19100000
   H    117.39200000    10.63500000    73.55200000
   H    116.38000000     9.28700000    74.12500000
   N    118.49000000    10.12000000    75.89000000
   C    119.36000000    10.57000000    76.96000000
   C    119.19000000     9.63000000    78.15000000
   O    120.10000000     9.44000000    78.95000000
   C    120.80000000    10.76000000    76.48000000
   C    121.71000000    11.44000000    77.49000000
   O    122.80000000    10.90000000    77.77000000
   O    121.34000000    12.51000000    78.03000000
   H    118.90000000     9.57000000    75.15000000
   H    118.99000000    11.53000000    77.31000000
   H    120.80000000    11.48000000    75.66000000
   H    121.16000000     9.77000000    76.23000000
   N    118.02000000     9.01000000    78.29000000
   C    117.62000000     8.11000000    79.35000000
   C    116.77000000     6.94000000    78.88000000
   O    116.22000000     7.02000000    77.79000000
   C    116.71000000     8.96000000    80.23000000
   H    117.46000000     9.10000000    77.45000000
   H    118.51000000     7.84000000    79.91000000
   H    115.84000000     9.13000000    79.59000000
   H    116.22000000     8.46000000    81.08000000
   H    117.24000000     9.88000000    80.47000000
   N    116.58000000     5.84000000    79.62000000
   C    116.98000000     5.72000000    81.01000000
   C    117.93000000     4.56000000    81.25000000
   O    117.79000000     3.49000000    80.65000000
   C    115.67000000     5.53000000    81.77000000
   C    115.75000000     5.69000000    83.28000000
   O    116.81000000     5.94000000    83.90000000
   O    114.70000000     5.79000000    83.95000000
   H    116.14000000     5.04000000    79.20000000
   H    117.46000000     6.59000000    81.47000000
   H    115.24000000     4.53000000    81.70000000
   H    114.98000000     6.28000000    81.37000000
   N    118.99000000     4.82000000    82.01000000
   C    120.12000000     3.94000000    82.24000000
   C    121.40000000     4.39000000    81.55000000
   O    121.67000000     5.59000000    81.47000000
   H    118.97000000     5.67000000    82.55000000
   H    119.86000000     2.94000000    81.88000000
   H    120.29000000     3.69000000    83.28000000
   N    122.21000000     3.45000000    81.06000000
   C    122.02000000     2.02000000    80.97000000
   C    121.18000000     1.67000000    79.75000000
   O    121.36000000     2.22000000    78.66000000
   C    123.40000000     1.40000000    80.86000000
   C    123.49000000    -0.11000000    81.03000000
   N    124.68000000    -0.69000000    80.90000000
   O    122.47000000    -0.74000000    81.33000000
   H    123.05000000     3.74000000    80.57000000
   H    121.58000000     1.67000000    81.91000000
   H    124.03000000     1.84000000    81.63000000
   H    123.85000000     1.66000000    79.90000000
   H    125.50000000    -0.13000000    80.74000000
   H    124.74000000    -1.69000000    81.04000000
   N    120.09000000     0.93000000    79.98000000
   C    118.98000000     0.63000000    79.11000000
   C    117.76000000     0.10000000    79.85000000
   O    117.00000000    -0.68000000    79.28000000
   H    120.12000000     0.58000000    80.93000000
   H    119.32000000    -0.15000000    78.43000000
   H    118.69000000     1.59000000    78.68000000
   N    117.39000000     0.57000000    81.04000000
   C    116.15000000     0.17000000    81.68000000
   C    115.13000000     1.30000000    81.73000000
   O    115.20000000     2.23000000    82.53000000
   C    116.40000000    -0.50000000    83.03000000
   C    115.12000000    -1.07000000    83.62000000
   O    117.21000000    -1.64000000    82.84000000
   H    117.96000000     1.20000000    81.59000000
   H    115.68000000    -0.64000000    81.13000000
   H    116.93000000     0.21000000    83.66000000
   H    118.11000000    -1.32000000    82.69000000
   H    114.35000000    -0.32000000    83.79000000
   H    114.67000000    -1.89000000    83.06000000
   H    115.31000000    -1.38000000    84.64000000
   N    114.12000000     1.23000000    80.87000000
   C    113.10000000     2.26000000    80.76000000
   C    111.81000000     1.68000000    81.31000000
   O    111.59000000     0.48000000    81.42000000
   C    113.05000000     2.68000000    79.29000000
   C    114.29000000     3.53000000    79.01000000
   C    112.90000000     1.51000000    78.32000000
   C    114.55000000     4.03000000    77.60000000
   H    114.14000000     0.66000000    80.04000000
   H    113.32000000     3.14000000    81.37000000
   H    112.25000000     3.40000000    79.16000000
   H    115.17000000     2.93000000    79.26000000
   H    114.31000000     4.37000000    79.70000000
   H    112.72000000     1.97000000    77.35000000
   H    113.79000000     0.89000000    78.22000000
   H    112.00000000     0.93000000    78.52000000
   H    114.63000000     3.23000000    76.86000000
   H    113.76000000     4.76000000    77.38000000
   H    115.53000000     4.50000000    77.52000000
   N    110.85000000     2.59000000    81.48000000
   C    109.48000000     2.31000000    81.87000000
   C    108.57000000     3.46000000    81.44000000
   O    108.90000000     4.64000000    81.52000000
   C    109.34000000     2.12000000    83.37000000
   C    110.28000000     2.98000000    84.22000000
   O    111.38000000     2.52000000    84.58000000
   O    109.86000000     4.08000000    84.64000000
   H    111.14000000     3.54000000    81.30000000
   H    109.15000000     1.37000000    81.42000000
   H    109.60000000     1.09000000    83.63000000
   H    108.33000000     2.43000000    83.63000000
   N    107.38000000     3.06000000    80.99000000
   C    106.33000000     4.05000000    80.82000000
   C    106.48000000     4.95000000    79.60000000
   O    106.85000000     4.53000000    78.51000000
   C    105.01000000     3.29000000    80.73000000
   C    103.75000000     4.10000000    80.51000000
   C    103.21000000     4.35000000    79.25000000
   C    103.01000000     4.61000000    81.58000000
   C    101.93000000     4.89000000    79.06000000
   C    101.73000000     5.16000000    81.44000000
   C    101.16000000     5.27000000    80.17000000
   H    107.17000000     2.07000000    81.03000000
   H    106.36000000     4.60000000    81.76000000
   H    104.91000000     2.64000000    81.60000000
   H    105.06000000     2.61000000    79.88000000
   H    103.71000000     3.90000000    78.41000000
   H    103.52000000     4.58000000    82.53000000
   H    101.40000000     4.87000000    78.11000000
   H    101.17000000     5.50000000    82.30000000
   H    100.14000000     5.60000000    80.05000000
   N    106.42000000     6.28000000    79.77000000
   C    106.64000000     7.19000000    78.66000000
   C    108.02000000     7.07000000    78.03000000
   O    108.32000000     7.61000000    76.97000000
   C    106.59000000     8.55000000    79.36000000
   C    105.46000000     8.32000000    80.36000000
   C    105.82000000     6.94000000    80.90000000
   H    105.82000000     7.15000000    77.95000000
   H    107.49000000     8.93000000    79.84000000
   H    106.44000000     9.43000000    78.73000000
   H    105.29000000     9.10000000    81.11000000
   H    104.48000000     8.24000000    79.89000000
   H    106.54000000     7.15000000    81.70000000
   H    105.01000000     6.43000000    81.42000000
   N    109.01000000     6.51000000    78.72000000
   C    110.37000000     6.24000000    78.30000000
   C    110.56000000     5.19000000    77.22000000
   O    111.40000000     5.28000000    76.33000000
   C    111.15000000     5.88000000    79.57000000
   C    111.19000000     6.99000000    80.62000000
   C    111.83000000     6.65000000    81.96000000
   O    112.01000000     7.55000000    82.81000000
   O    112.09000000     5.45000000    82.20000000
   H    108.80000000     6.18000000    79.65000000
   H    110.78000000     7.18000000    77.93000000
   H    112.14000000     5.64000000    79.19000000
   H    110.67000000     4.94000000    79.83000000
   H    110.17000000     7.32000000    80.82000000
   H    111.84000000     7.80000000    80.29000000
   N    109.69000000     4.18000000    77.32000000
   C    109.34000000     3.38000000    76.16000000
   H    108.48500000     3.82800000    75.65500000
   H    110.18700000     3.34200000    75.47500000
   H    109.08400000     2.36900000    76.47900000
   H    108.92000000     4.33000000    77.95000000
  Ca    112.39300000     5.26000000    84.69000000
   O    113.86300000     3.07000000    84.71000000
   H    113.07300000     2.53000000    84.60000000
   H    114.54300000     2.61000000    84.22000000
   O    110.59300000     6.19000000    86.45000000
   H    111.02300000     6.58000000    87.21000000
   H    109.66300000     6.19000000    86.67000000
   O    113.23300000     7.25000000    86.31000000
   H    112.62300000     7.85000000    86.72000000
   H    114.08300000     7.70000000    86.34000000

Ca 1.00



