%chk=loop3.apoCaM-CA-Ng.Init31.run50.water6.chk
%nprocshared=20
%mem=10GB
%nosave
#b3lyp/svp scf=(tight,noincore,xqc) Test 
#IOP(5/87=12) Density=Current Pop=(MK,readradii) iop(6/33=2) iop(6/42=6)

loop3.apoCaM-CA-Ng.Init31.run50.water6 

   0  1 
   C    116.11000000    49.21000000    19.05000000
   C    116.06000000    50.64000000    19.55000000
   O    115.07000000    51.36000000    19.41000000
   H    117.14600000    48.87400000    19.01600000
   H    115.54200000    48.56900000    19.72400000
   H    115.67900000    49.15900000    18.05000000
   N    117.13000000    51.08000000    20.23000000
   C    117.35000000    52.36000000    20.87000000
   C    118.28000000    53.36000000    20.19000000
   O    119.12000000    52.96000000    19.39000000
   C    118.00000000    52.06000000    22.22000000
   C    119.42000000    51.57000000    21.99000000
   O    119.66000000    50.40000000    21.61000000
   O    120.25000000    52.44000000    22.35000000
   H    117.90000000    50.43000000    20.27000000
   H    116.38000000    52.84000000    21.02000000
   H    117.43000000    51.29000000    22.74000000
   H    118.05000000    53.02000000    22.72000000
   N    118.29000000    54.63000000    20.60000000
   C    119.17000000    55.65000000    20.07000000
   C    119.07000000    55.88000000    18.57000000
   O    120.05000000    55.97000000    17.83000000
   C    118.86000000    56.90000000    20.88000000
   C    120.00000000    57.91000000    20.74000000
   C    119.86000000    59.18000000    21.58000000
   C    121.19000000    59.92000000    21.49000000
   N    122.27000000    59.35000000    22.30000000
   H    117.58000000    54.97000000    21.23000000
   H    120.22000000    55.39000000    20.21000000
   H    118.67000000    56.69000000    21.94000000
   H    117.99000000    57.30000000    20.36000000
   H    120.32000000    58.13000000    19.73000000
   H    120.84000000    57.39000000    21.22000000
   H    119.52000000    58.95000000    22.59000000
   H    119.15000000    59.83000000    21.07000000
   H    120.97000000    60.95000000    21.77000000
   H    121.53000000    60.03000000    20.46000000
   H    122.90000000    58.78000000    21.75000000
   H    122.93000000    60.05000000    22.61000000
   H    121.94000000    58.74000000    23.04000000
   N    117.82000000    55.86000000    18.10000000
   C    117.43000000    56.09000000    16.72000000
   C    116.18000000    56.96000000    16.64000000
   O    115.38000000    56.84000000    15.72000000
   C    117.19000000    54.74000000    16.04000000
   C    116.05000000    53.93000000    16.64000000
   O    115.81000000    52.80000000    16.17000000
   O    115.46000000    54.27000000    17.69000000
   H    117.07000000    55.57000000    18.71000000
   H    118.11000000    56.63000000    16.06000000
   H    118.13000000    54.20000000    16.02000000
   H    116.92000000    54.93000000    15.00000000
   N    115.88000000    57.67000000    17.72000000
   C    114.56000000    58.18000000    18.05000000
   C    113.95000000    57.33000000    19.16000000
   O    114.29000000    56.18000000    19.41000000
   H    116.67000000    57.91000000    18.30000000
   H    113.89000000    58.10000000    17.20000000
   H    114.62000000    59.24000000    18.27000000
   N    112.97000000    57.92000000    19.84000000
   C    112.26000000    59.14000000    19.48000000
   C    110.81000000    58.89000000    19.88000000
   O    110.60000000    58.44000000    21.00000000
   C    112.82000000    60.31000000    20.28000000
   C    112.07000000    61.62000000    20.12000000
   N    111.89000000    62.22000000    18.94000000
   O    111.57000000    62.14000000    21.11000000
   H    112.55000000    57.37000000    20.58000000
   H    112.38000000    59.34000000    18.42000000
   H    113.82000000    60.53000000    19.89000000
   H    112.85000000    59.97000000    21.32000000
   H    112.44000000    61.92000000    18.15000000
   H    111.42000000    63.12000000    18.94000000
   N    109.82000000    58.99000000    19.00000000
   C    109.78000000    59.50000000    17.64000000
   C    110.30000000    58.51000000    16.61000000
   O    111.21000000    57.72000000    16.81000000
   H    108.98000000    58.57000000    19.39000000
   H    110.20000000    60.50000000    17.64000000
   H    108.71000000    59.61000000    17.46000000
   N    109.72000000    58.58000000    15.41000000
   C    110.09000000    57.92000000    14.17000000
   C    110.00000000    58.75000000    12.91000000
   O    108.90000000    59.22000000    12.63000000
   C    109.47000000    56.54000000    13.93000000
   C    108.03000000    56.38000000    14.37000000
   C    107.85000000    55.75000000    15.60000000
   C    107.01000000    56.89000000    13.56000000
   C    106.53000000    55.56000000    16.03000000
   C    105.71000000    56.83000000    14.09000000
   C    105.47000000    56.08000000    15.26000000
   O    104.20000000    56.07000000    15.76000000
   H    108.92000000    59.19000000    15.42000000
   H    111.17000000    57.78000000    14.21000000
   H    110.00000000    55.71000000    14.41000000
   H    109.51000000    56.30000000    12.87000000
   H    108.62000000    55.41000000    16.27000000
   H    107.25000000    57.41000000    12.65000000
   H    106.33000000    55.04000000    16.96000000
   H    104.92000000    57.28000000    13.51000000
   H    103.57000000    56.52000000    15.20000000
   N    111.01000000    59.02000000    12.08000000
   C    110.96000000    60.01000000    11.03000000
   C    111.37000000    59.57000000     9.63000000
   O    111.03000000    60.19000000     8.62000000
   C    111.66000000    61.34000000    11.32000000
   C    111.05000000    61.81000000    12.64000000
   C    113.17000000    61.18000000    11.50000000
   C    111.12000000    63.32000000    12.84000000
   H    111.91000000    58.58000000    12.19000000
   H    109.92000000    60.33000000    10.94000000
   H    111.39000000    62.02000000    10.51000000
   H    111.49000000    61.37000000    13.53000000
   H    109.99000000    61.56000000    12.64000000
   H    113.65000000    60.67000000    10.66000000
   H    113.69000000    62.12000000    11.68000000
   H    113.30000000    60.61000000    12.43000000
   H    110.77000000    63.92000000    12.00000000
   H    110.37000000    63.57000000    13.59000000
   H    112.12000000    63.71000000    13.04000000
   N    112.12000000    58.48000000     9.50000000
   C    112.67000000    57.94000000     8.28000000
   C    114.14000000    57.55000000     8.44000000
   O    114.91000000    57.50000000     7.49000000
   C    111.76000000    56.80000000     7.82000000
   O    112.14000000    55.60000000     8.44000000
   H    112.14000000    57.84000000    10.29000000
   H    112.62000000    58.70000000     7.51000000
   H    111.93000000    56.69000000     6.75000000
   H    110.71000000    57.00000000     8.03000000
   H    111.66000000    55.58000000     9.28000000
   N    114.59000000    57.39000000     9.69000000
   C    115.83000000    56.71000000    10.00000000
   C    115.68000000    55.20000000    10.02000000
   O    116.40000000    54.53000000    10.76000000
   C    116.36000000    57.22000000    11.34000000
   H    113.94000000    57.57000000    10.44000000
   H    116.56000000    57.01000000     9.25000000
   H    116.46000000    58.31000000    11.28000000
   H    115.77000000    57.05000000    12.24000000
   H    117.34000000    56.79000000    11.53000000
   N    114.82000000    54.59000000     9.20000000
   C    114.67000000    53.16000000     9.08000000
   C    114.41000000    52.52000000    10.44000000
   O    115.14000000    51.59000000    10.80000000
   C    115.82000000    52.54000000     8.29000000
   H    114.11000000    55.15000000     8.74000000
   H    113.75000000    52.88000000     8.56000000
   H    115.75000000    52.77000000     7.22000000
   H    116.76000000    52.86000000     8.74000000
   H    115.62000000    51.47000000     8.39000000
   N    113.56000000    53.10000000    11.30000000
   C    113.44000000    52.85000000    12.72000000
   C    112.24000000    52.03000000    13.18000000
   O    112.20000000    51.54000000    14.31000000
   C    113.64000000    54.17000000    13.46000000
   C    112.63000000    55.30000000    13.41000000
   C    112.77000000    56.18000000    12.18000000
   O    112.26000000    55.85000000    11.08000000
   O    113.34000000    57.29000000    12.22000000
   H    113.05000000    53.90000000    10.97000000
   H    114.25000000    52.18000000    13.01000000
   H    114.56000000    54.60000000    13.05000000
   H    113.96000000    53.91000000    14.47000000
   H    112.76000000    55.98000000    14.25000000
   H    111.60000000    54.93000000    13.38000000
   N    111.29000000    51.83000000    12.26000000
   C    110.24000000    50.84000000    12.36000000
   H    109.36100000    51.18800000    11.81700000
   H    110.58400000    49.90000000    11.92900000
   H    109.98200000    50.68700000    13.40800000
   H    111.35000000    52.38000000    11.41000000
  Ca    113.28900000    53.65000000    18.97000000
   O    113.95900000    54.07000000    21.52000000
   H    113.27900000    54.27000000    22.17000000
   H    114.76900000    54.38000000    21.92000000
   O    110.68900000    53.02000000    17.85000000
   H    111.01900000    52.54000000    17.09000000
   H    110.05900000    52.42000000    18.25000000
   O    111.15900000    55.22000000    19.87000000
   H    110.37900000    55.10000000    19.33000000
   H    110.85900000    55.07000000    20.76000000
   O    112.93900000    55.28000000    16.87000000
   H    112.30900000    55.96000000    16.62000000
   H    113.76900000    55.58000000    16.50000000
   O    113.34900000    52.06000000    16.78000000
   H    112.84900000    51.94000000    15.97000000
   H    114.24900000    52.17000000    16.49000000
   O    111.71900000    52.04000000    20.47000000
   H    111.86900000    51.18000000    20.87000000
   H    110.76900000    52.13000000    20.47000000

Ca 1.00



