%chk=loop4.apoCaM-CA-Ng.Init295.run43.water1.chk
%nprocshared=20
%mem=10GB
%nosave
#b3lyp/svp scf=(tight,noincore,xqc) Test 
#IOP(5/87=12) Density=Current Pop=(MK,readradii) iop(6/33=2) iop(6/42=6)

loop4.apoCaM-CA-Ng.Init295.run43.water1 

   -3  1 
   C     68.05000000    30.68000000    50.00000000
   C     68.52000000    30.31000000    51.39000000
   O     69.37000000    31.03000000    51.90000000
   H     67.18200000    31.33500000    50.07300000
   H     68.85100000    31.19600000    49.47000000
   H     67.77700000    29.77600000    49.45500000
   N     68.01000000    29.29000000    52.09000000
   C     68.46000000    28.76000000    53.37000000
   C     68.27000000    29.85000000    54.41000000
   O     69.07000000    29.93000000    55.34000000
   C     69.85000000    28.13000000    53.29000000
   C     69.96000000    27.27000000    52.03000000
   O     70.95000000    27.42000000    51.29000000
   O     69.13000000    26.40000000    51.69000000
   H     67.36000000    28.74000000    51.55000000
   H     67.79000000    27.99000000    53.74000000
   H     70.07000000    27.54000000    54.18000000
   H     70.52000000    28.98000000    53.16000000
   N     67.25000000    30.71000000    54.38000000
   C     66.77000000    31.78000000    55.24000000
   C     65.63000000    31.20000000    56.06000000
   O     64.57000000    30.98000000    55.47000000
   C     66.44000000    33.06000000    54.47000000
   C     67.61000000    33.48000000    53.59000000
   C     65.91000000    34.17000000    55.37000000
   C     67.63000000    34.87000000    52.97000000
   H     66.58000000    30.51000000    53.66000000
   H     67.61000000    32.02000000    55.89000000
   H     65.68000000    32.76000000    53.75000000
   H     67.74000000    32.74000000    52.80000000
   H     68.50000000    33.41000000    54.21000000
   H     66.81000000    34.42000000    55.93000000
   H     65.66000000    35.05000000    54.78000000
   H     65.13000000    33.94000000    56.10000000
   H     67.57000000    35.56000000    53.81000000
   H     68.49000000    34.91000000    52.30000000
   H     66.70000000    34.93000000    52.39000000
   N     65.67000000    31.23000000    57.39000000
   C     66.84000000    31.12000000    58.24000000
   C     67.65000000    29.83000000    58.17000000
   O     68.84000000    29.88000000    58.48000000
   C     66.47000000    31.39000000    59.70000000
   C     66.01000000    32.81000000    59.97000000
   O     64.82000000    33.19000000    59.87000000
   O     66.89000000    33.65000000    60.25000000
   H     64.80000000    31.05000000    57.86000000
   H     67.55000000    31.91000000    57.99000000
   H     67.27000000    31.29000000    60.43000000
   H     65.73000000    30.64000000    59.98000000
   N     66.94000000    28.71000000    57.99000000
   C     67.47000000    27.36000000    57.95000000
   C     68.33000000    26.92000000    59.12000000
   O     67.87000000    27.01000000    60.26000000
   H     65.94000000    28.81000000    57.98000000
   H     68.02000000    27.31000000    57.01000000
   H     66.66000000    26.64000000    57.80000000
   N     69.59000000    26.59000000    58.83000000
   C     70.55000000    26.17000000    59.84000000
   C     71.71000000    27.13000000    60.06000000
   O     72.51000000    26.95000000    60.98000000
   C     71.12000000    24.79000000    59.53000000
   C     71.55000000    24.53000000    58.09000000
   O     72.42000000    25.30000000    57.61000000
   O     70.88000000    23.78000000    57.36000000
   H     69.82000000    26.62000000    57.85000000
   H     70.13000000    25.98000000    60.83000000
   H     70.36000000    24.04000000    59.74000000
   H     71.93000000    24.59000000    60.23000000
   N     71.71000000    28.18000000    59.24000000
   C     72.69000000    29.24000000    59.28000000
   C     74.02000000    29.02000000    58.56000000
   O     74.86000000    29.91000000    58.50000000
   H     71.06000000    28.32000000    58.49000000
   H     72.97000000    29.46000000    60.31000000
   H     72.21000000    30.07000000    58.76000000
   N     74.25000000    27.81000000    58.05000000
   C     75.53000000    27.34000000    57.56000000
   C     76.20000000    28.13000000    56.45000000
   O     77.43000000    28.26000000    56.40000000
   C     76.46000000    26.99000000    58.72000000
   C     75.93000000    26.10000000    59.84000000
   C     77.03000000    25.68000000    60.81000000
   N     76.58000000    24.94000000    61.83000000
   O     78.20000000    26.02000000    60.72000000
   H     73.44000000    27.21000000    58.05000000
   H     75.26000000    26.38000000    57.12000000
   H     76.78000000    27.92000000    59.18000000
   H     77.34000000    26.51000000    58.29000000
   H     75.45000000    25.19000000    59.49000000
   H     75.14000000    26.69000000    60.30000000
   H     75.69000000    24.49000000    61.71000000
   H     77.30000000    24.70000000    62.50000000
   N     75.46000000    28.73000000    55.51000000
   C     76.02000000    29.47000000    54.39000000
   C     76.64000000    28.66000000    53.26000000
   O     76.24000000    27.56000000    52.88000000
   C     74.90000000    30.36000000    53.87000000
   C     73.73000000    29.65000000    53.20000000
   C     74.46000000    31.35000000    54.94000000
   H     74.47000000    28.57000000    55.47000000
   H     76.74000000    30.20000000    54.76000000
   H     75.32000000    31.01000000    53.10000000
   H     73.34000000    28.80000000    53.77000000
   H     72.90000000    30.21000000    52.79000000
   H     74.18000000    29.21000000    52.30000000
   H     75.24000000    32.02000000    55.30000000
   H     73.74000000    32.03000000    54.48000000
   H     74.02000000    30.75000000    55.74000000
   N     77.74000000    29.14000000    52.69000000
   C     78.52000000    28.59000000    51.60000000
   C     78.24000000    29.48000000    50.39000000
   O     78.19000000    30.71000000    50.40000000
   C     79.96000000    28.50000000    52.10000000
   C     80.82000000    27.92000000    50.98000000
   N     80.54000000    26.73000000    50.44000000
   O     81.81000000    28.51000000    50.55000000
   H     78.02000000    30.07000000    52.97000000
   H     78.13000000    27.59000000    51.44000000
   H     80.06000000    27.91000000    53.01000000
   H     80.26000000    29.53000000    52.28000000
   H     79.70000000    26.26000000    50.74000000
   H     81.20000000    26.38000000    49.77000000
   N     78.43000000    28.79000000    49.26000000
   C     78.19000000    29.27000000    47.92000000
   C     77.46000000    28.27000000    47.04000000
   O     78.11000000    27.74000000    46.14000000
   C     79.46000000    29.78000000    47.24000000
   C     79.93000000    31.14000000    47.69000000
   C     80.90000000    31.35000000    48.67000000
   C     79.47000000    32.21000000    46.91000000
   C     81.35000000    32.65000000    48.96000000
   C     79.95000000    33.50000000    47.18000000
   C     80.83000000    33.75000000    48.25000000
   O     81.38000000    34.99000000    48.42000000
   H     78.68000000    27.81000000    49.32000000
   H     77.54000000    30.15000000    47.89000000
   H     79.24000000    29.77000000    46.17000000
   H     80.24000000    29.05000000    47.48000000
   H     81.19000000    30.50000000    49.28000000
   H     78.79000000    31.97000000    46.11000000
   H     81.92000000    32.87000000    49.85000000
   H     79.62000000    34.22000000    46.45000000
   H     81.15000000    35.59000000    47.71000000
   N     76.22000000    27.87000000    47.31000000
   C     75.53000000    26.78000000    46.65000000
   C     74.78000000    27.24000000    45.41000000
   O     74.75000000    26.49000000    44.43000000
   C     74.71000000    26.09000000    47.74000000
   C     73.93000000    24.87000000    47.27000000
   C     73.05000000    24.29000000    48.36000000
   O     72.21000000    25.03000000    48.92000000
   O     73.34000000    23.15000000    48.77000000
   H     75.77000000    28.32000000    48.10000000
   H     76.22000000    26.00000000    46.33000000
   H     73.92000000    26.74000000    48.12000000
   H     75.37000000    25.82000000    48.57000000
   H     74.67000000    24.14000000    46.95000000
   H     73.33000000    25.09000000    46.38000000
   N     74.14000000    28.40000000    45.31000000
   C     73.53000000    29.20000000    46.35000000
   C     74.30000000    30.48000000    46.67000000
   O     75.25000000    30.82000000    45.97000000
   C     72.10000000    29.50000000    45.93000000
   C     71.14000000    28.34000000    45.64000000
   C     70.95000000    27.43000000    46.84000000
   O     70.55000000    26.26000000    46.64000000
   O     71.10000000    27.83000000    48.01000000
   H     73.90000000    28.65000000    44.36000000
   H     73.53000000    28.65000000    47.29000000
   H     72.04000000    30.24000000    45.14000000
   H     71.66000000    30.00000000    46.80000000
   H     71.60000000    27.78000000    44.82000000
   H     70.24000000    28.69000000    45.14000000
   N     73.91000000    31.15000000    47.75000000
   C     74.39000000    32.43000000    48.23000000
   H     75.32000000    32.68200000    47.72100000
   H     73.64400000    33.19800000    48.02500000
   H     74.56800000    32.37300000    49.30400000
   H     73.22000000    30.65000000    48.31000000
  Ca     69.83000000    25.96000000    49.24000000
   O     69.25000000    23.41000000    49.51000000
   H     69.84000000    22.66000000    49.52000000
   H     68.73000000    23.29000000    48.72000000

Ca 1.00



