%chk=loop3.holoCaM.run6.water3.chk
%nprocshared=20
%mem=10GB
%nosave
#b3lyp/svp scf=(tight,noincore,xqc) Test 
#IOP(5/87=12) Density=Current Pop=(MK,readradii) iop(6/33=2) iop(6/42=6)

loop3.holoCaM.run6.water3 

   0  1 
   C     39.53000000    37.10000000    40.05000000
   C     39.83000000    36.81000000    41.51000000
   O     38.95000000    37.13000000    42.30000000
   H     38.73700000    37.84500000    39.98400000
   H     40.42800000    37.48100000    39.56300000
   H     39.20900000    36.18300000    39.55600000
   N     41.01000000    36.28000000    41.87000000
   C     41.49000000    36.23000000    43.23000000
   C     41.92000000    37.53000000    43.89000000
   O     42.86000000    38.17000000    43.42000000
   C     42.58000000    35.16000000    43.19000000
   C     43.20000000    34.82000000    44.54000000
   O     42.81000000    35.42000000    45.56000000
   O     44.09000000    33.94000000    44.52000000
   H     41.58000000    35.80000000    41.19000000
   H     40.65000000    35.85000000    43.81000000
   H     43.45000000    35.42000000    42.59000000
   H     42.12000000    34.18000000    43.03000000
   N     41.32000000    37.95000000    45.01000000
   C     41.31000000    39.34000000    45.39000000
   C     42.61000000    39.75000000    46.07000000
   O     43.00000000    40.90000000    45.92000000
   C     40.00000000    39.51000000    46.15000000
   C     39.84000000    40.92000000    46.71000000
   C     38.40000000    41.39000000    46.87000000
   C     37.61000000    41.57000000    45.57000000
   N     36.37000000    42.27000000    45.93000000
   H     40.67000000    37.33000000    45.47000000
   H     41.42000000    39.96000000    44.49000000
   H     39.84000000    38.80000000    46.96000000
   H     39.20000000    39.50000000    45.41000000
   H     40.33000000    41.65000000    46.07000000
   H     40.42000000    41.01000000    47.63000000
   H     38.47000000    42.35000000    47.39000000
   H     37.92000000    40.73000000    47.59000000
   H     37.39000000    40.65000000    45.03000000
   H     38.10000000    42.25000000    44.87000000
   H     35.92000000    41.88000000    46.75000000
   H     36.50000000    43.26000000    46.03000000
   H     35.76000000    42.19000000    45.12000000
   N     43.21000000    38.83000000    46.83000000
   C     44.55000000    38.99000000    47.34000000
   C     45.59000000    38.18000000    46.58000000
   O     46.77000000    38.14000000    46.91000000
   C     44.53000000    38.58000000    48.81000000
   C     43.95000000    37.20000000    49.08000000
   O     43.54000000    36.47000000    48.15000000
   O     44.07000000    36.84000000    50.27000000
   H     42.78000000    37.92000000    46.72000000
   H     44.89000000    40.03000000    47.30000000
   H     44.01000000    39.27000000    49.48000000
   H     45.53000000    38.63000000    49.23000000
   N     45.18000000    37.40000000    45.57000000
   C     46.03000000    36.61000000    44.70000000
   C     46.70000000    35.47000000    45.45000000
   O     47.84000000    35.09000000    45.17000000
   H     44.19000000    37.45000000    45.38000000
   H     46.83000000    37.26000000    44.35000000
   H     45.67000000    36.10000000    43.81000000
   N     46.05000000    34.93000000    46.48000000
   C     46.59000000    33.89000000    47.33000000
   C     46.73000000    32.47000000    46.80000000
   O     47.63000000    31.71000000    47.15000000
   C     45.98000000    34.13000000    48.71000000
   C     44.81000000    33.22000000    49.06000000
   N     44.82000000    32.58000000    50.24000000
   O     43.88000000    33.06000000    48.29000000
   H     45.06000000    35.12000000    46.45000000
   H     47.64000000    34.11000000    47.52000000
   H     45.76000000    35.19000000    48.87000000
   H     46.78000000    33.95000000    49.42000000
   H     45.46000000    32.83000000    50.98000000
   H     44.01000000    32.02000000    50.44000000
   N     45.87000000    32.08000000    45.86000000
   C     45.61000000    30.82000000    45.20000000
   C     44.17000000    30.37000000    45.04000000
   O     44.02000000    29.39000000    44.32000000
   H     45.35000000    32.90000000    45.59000000
   H     46.17000000    29.99000000    45.64000000
   H     45.99000000    30.91000000    44.18000000
   N     43.18000000    31.03000000    45.67000000
   C     41.80000000    30.62000000    45.81000000
   C     40.70000000    31.66000000    45.62000000
   O     41.01000000    32.76000000    46.07000000
   C     41.50000000    29.92000000    47.13000000
   C     42.52000000    28.94000000    47.66000000
   C     43.33000000    29.42000000    48.69000000
   C     42.77000000    27.70000000    47.06000000
   C     44.51000000    28.78000000    49.09000000
   C     43.93000000    27.03000000    47.47000000
   C     44.74000000    27.52000000    48.50000000
   O     45.84000000    26.83000000    48.91000000
   H     43.50000000    31.70000000    46.35000000
   H     41.64000000    29.81000000    45.10000000
   H     40.58000000    29.34000000    46.97000000
   H     41.32000000    30.60000000    47.96000000
   H     43.11000000    30.39000000    49.12000000
   H     42.15000000    27.28000000    46.28000000
   H     45.19000000    29.12000000    49.87000000
   H     44.14000000    26.10000000    46.96000000
   H     45.92000000    25.96000000    48.50000000
   N     39.48000000    31.35000000    45.18000000
   C     38.36000000    32.27000000    45.24000000
   C     37.34000000    31.71000000    46.22000000
   O     36.83000000    30.61000000    45.99000000
   C     37.91000000    32.46000000    43.80000000
   C     39.00000000    32.77000000    42.77000000
   C     36.73000000    33.43000000    43.90000000
   C     38.32000000    33.15000000    41.46000000
   H     39.34000000    30.52000000    44.62000000
   H     38.78000000    33.24000000    45.54000000
   H     37.41000000    31.54000000    43.51000000
   H     39.62000000    31.88000000    42.65000000
   H     39.63000000    33.62000000    43.03000000
   H     37.03000000    34.48000000    43.93000000
   H     36.08000000    33.27000000    43.04000000
   H     36.10000000    33.28000000    44.77000000
   H     38.95000000    32.77000000    40.65000000
   H     37.41000000    32.58000000    41.25000000
   H     38.13000000    34.22000000    41.40000000
   N     37.04000000    32.43000000    47.30000000
   C     36.01000000    32.18000000    48.27000000
   C     34.65000000    32.72000000    47.87000000
   O     34.61000000    33.40000000    46.84000000
   C     36.38000000    32.89000000    49.57000000
   O     36.70000000    34.25000000    49.38000000
   H     37.44000000    33.36000000    47.28000000
   H     35.95000000    31.12000000    48.55000000
   H     37.24000000    32.32000000    49.93000000
   H     35.52000000    32.80000000    50.23000000
   H     37.56000000    34.28000000    48.95000000
   N     33.52000000    32.53000000    48.55000000
   C     32.23000000    33.01000000    48.06000000
   C     32.15000000    34.52000000    48.14000000
   O     31.32000000    35.10000000    47.45000000
   C     31.07000000    32.29000000    48.73000000
   H     33.45000000    31.87000000    49.31000000
   H     32.12000000    32.72000000    47.02000000
   H     30.85000000    32.48000000    49.79000000
   H     30.15000000    32.34000000    48.15000000
   H     31.29000000    31.22000000    48.77000000
   N     33.05000000    35.22000000    48.85000000
   C     33.00000000    36.66000000    48.99000000
   C     33.58000000    37.23000000    47.70000000
   O     33.22000000    38.27000000    47.17000000
   C     33.92000000    37.06000000    50.14000000
   H     33.65000000    34.70000000    49.47000000
   H     31.95000000    36.88000000    49.19000000
   H     34.96000000    37.05000000    49.79000000
   H     33.63000000    38.09000000    50.33000000
   H     33.80000000    36.47000000    51.04000000
   N     34.64000000    36.61000000    47.17000000
   C     35.16000000    36.91000000    45.86000000
   C     34.29000000    36.42000000    44.71000000
   O     34.08000000    37.26000000    43.84000000
   C     36.59000000    36.36000000    45.81000000
   C     37.53000000    36.90000000    46.88000000
   C     38.70000000    35.93000000    46.99000000
   O     39.80000000    36.09000000    46.41000000
   O     38.57000000    34.89000000    47.68000000
   H     34.80000000    35.68000000    47.54000000
   H     35.19000000    37.97000000    45.64000000
   H     37.01000000    36.46000000    44.81000000
   H     36.49000000    35.30000000    46.03000000
   H     37.03000000    36.93000000    47.85000000
   H     37.73000000    37.86000000    46.42000000
   N     33.62000000    35.27000000    44.77000000
   C     32.67000000    34.83000000    43.76000000
   H     31.79600000    35.48200000    43.77500000
   H     33.13800000    34.87400000    42.77700000
   H     32.36200000    33.80600000    43.97100000
   H     33.91000000    34.63000000    45.50000000
  Ca     41.63000000    34.75000000    47.75000000
   O     40.59000000    36.76000000    49.55000000
   H     40.90000000    37.55000000    49.99000000
   H     39.84000000    36.47000000    50.06000000
   O     42.54000000    34.78000000    50.55000000
   H     42.48000000    34.74000000    51.51000000
   H     42.93000000    35.63000000    50.37000000
   O     40.40000000    33.08000000    49.50000000
   H     40.36000000    33.48000000    50.37000000
   H     40.20000000    32.16000000    49.65000000

Ca 1.00



