%chk=loop3.holoCaM.run87.water2.chk
%nprocshared=20
%mem=10GB
%nosave
#b3lyp/svp scf=(tight,noincore,xqc) Test 
#IOP(5/87=12) Density=Current Pop=(MK,readradii) iop(6/33=2) iop(6/42=6)

loop3.holoCaM.run87.water2 

   0  1 
   C     42.57000000    55.92000000    37.28000000
   C     43.80000000    55.12000000    37.66000000
   O     43.72000000    53.90000000    37.80000000
   H     41.77100000    55.71700000    37.99200000
   H     42.80800000    56.98400000    37.29600000
   H     42.24500000    55.63500000    36.27900000
   N     45.00000000    55.68000000    37.83000000
   C     46.14000000    55.00000000    38.42000000
   C     45.89000000    54.68000000    39.88000000
   O     45.60000000    55.56000000    40.69000000
   C     47.34000000    55.91000000    38.17000000
   C     48.76000000    55.60000000    38.62000000
   O     49.04000000    54.50000000    39.14000000
   O     49.63000000    56.50000000    38.57000000
   H     45.08000000    56.68000000    37.72000000
   H     46.31000000    54.07000000    37.87000000
   H     47.18000000    56.86000000    38.67000000
   H     47.40000000    56.21000000    37.12000000
   N     45.81000000    53.40000000    40.27000000
   C     45.40000000    53.03000000    41.61000000
   C     46.51000000    53.18000000    42.64000000
   O     46.34000000    52.72000000    43.76000000
   C     44.72000000    51.66000000    41.63000000
   C     43.25000000    51.51000000    41.25000000
   C     42.30000000    52.35000000    42.09000000
   C     40.85000000    51.88000000    41.94000000
   N     40.35000000    52.51000000    40.70000000
   H     46.16000000    52.70000000    39.64000000
   H     44.61000000    53.72000000    41.89000000
   H     44.69000000    51.24000000    42.64000000
   H     45.33000000    50.94000000    41.07000000
   H     42.92000000    50.49000000    41.40000000
   H     43.09000000    51.71000000    40.19000000
   H     42.49000000    53.42000000    41.96000000
   H     42.66000000    52.14000000    43.10000000
   H     40.30000000    52.23000000    42.81000000
   H     40.71000000    50.80000000    41.96000000
   H     39.37000000    52.30000000    40.58000000
   H     40.33000000    53.52000000    40.73000000
   H     40.86000000    52.23000000    39.87000000
   N     47.68000000    53.71000000    42.28000000
   C     48.81000000    54.06000000    43.11000000
   C     49.28000000    55.50000000    42.91000000
   O     48.96000000    56.35000000    43.74000000
   C     49.97000000    53.06000000    43.11000000
   C     50.29000000    52.55000000    41.71000000
   O     49.53000000    51.66000000    41.28000000
   O     51.08000000    53.21000000    41.00000000
   H     47.78000000    54.04000000    41.33000000
   H     48.44000000    54.08000000    44.14000000
   H     49.72000000    52.18000000    43.70000000
   H     50.87000000    53.59000000    43.42000000
   N     50.07000000    55.72000000    41.86000000
   C     50.70000000    57.01000000    41.64000000
   C     52.00000000    56.92000000    40.86000000
   O     52.75000000    57.89000000    40.95000000
   H     50.28000000    54.95000000    41.25000000
   H     51.02000000    57.42000000    42.60000000
   H     50.00000000    57.69000000    41.15000000
   N     52.33000000    55.78000000    40.25000000
   C     53.64000000    55.63000000    39.66000000
   C     53.64000000    56.18000000    38.23000000
   O     54.68000000    56.41000000    37.63000000
   C     54.17000000    54.21000000    39.78000000
   C     53.32000000    53.19000000    39.03000000
   N     53.79000000    51.94000000    38.97000000
   O     52.27000000    53.42000000    38.43000000
   H     51.70000000    55.01000000    40.09000000
   H     54.35000000    56.23000000    40.23000000
   H     54.16000000    53.91000000    40.83000000
   H     55.17000000    54.16000000    39.36000000
   H     54.69000000    51.65000000    39.33000000
   H     53.34000000    51.27000000    38.36000000
   N     52.47000000    56.47000000    37.67000000
   C     52.36000000    57.27000000    36.47000000
   C     51.94000000    56.44000000    35.26000000
   O     52.08000000    56.94000000    34.15000000
   H     51.60000000    56.41000000    38.18000000
   H     53.34000000    57.64000000    36.17000000
   H     51.54000000    57.98000000    36.57000000
   N     51.56000000    55.19000000    35.54000000
   C     51.17000000    54.12000000    34.65000000
   C     49.96000000    53.29000000    35.04000000
   O     49.61000000    53.26000000    36.22000000
   C     52.33000000    53.23000000    34.20000000
   C     53.69000000    53.88000000    34.12000000
   C     54.16000000    54.13000000    32.82000000
   C     54.51000000    54.14000000    35.22000000
   C     55.38000000    54.80000000    32.63000000
   C     55.79000000    54.70000000    35.05000000
   C     56.21000000    55.03000000    33.74000000
   O     57.47000000    55.53000000    33.61000000
   H     51.69000000    54.87000000    36.49000000
   H     50.93000000    54.63000000    33.72000000
   H     52.13000000    52.89000000    33.18000000
   H     52.42000000    52.31000000    34.78000000
   H     53.60000000    53.93000000    31.92000000
   H     54.09000000    53.89000000    36.18000000
   H     55.77000000    55.01000000    31.65000000
   H     56.42000000    54.79000000    35.92000000
   H     57.80000000    55.97000000    34.40000000
   N     49.30000000    52.59000000    34.11000000
   C     48.12000000    51.75000000    34.14000000
   C     48.51000000    50.47000000    33.41000000
   O     48.82000000    50.40000000    32.22000000
   C     46.88000000    52.49000000    33.66000000
   C     46.51000000    53.63000000    34.60000000
   C     45.72000000    51.49000000    33.60000000
   C     45.39000000    54.58000000    34.21000000
   H     49.72000000    52.70000000    33.20000000
   H     48.01000000    51.60000000    35.21000000
   H     46.93000000    52.88000000    32.64000000
   H     47.39000000    54.26000000    34.76000000
   H     46.29000000    53.19000000    35.58000000
   H     45.86000000    50.74000000    32.82000000
   H     45.65000000    50.98000000    34.56000000
   H     44.76000000    51.97000000    33.42000000
   H     45.60000000    55.55000000    34.67000000
   H     45.41000000    54.71000000    33.12000000
   H     44.42000000    54.20000000    34.51000000
   N     48.27000000    49.41000000    34.19000000
   C     48.25000000    48.00000000    33.87000000
   C     46.84000000    47.48000000    33.57000000
   O     45.83000000    48.12000000    33.85000000
   C     48.86000000    47.21000000    35.01000000
   O     48.04000000    47.36000000    36.15000000
   H     48.00000000    49.68000000    35.13000000
   H     48.86000000    47.82000000    32.98000000
   H     49.90000000    47.52000000    35.11000000
   H     48.85000000    46.14000000    34.78000000
   H     48.47000000    46.90000000    36.87000000
   N     46.73000000    46.25000000    33.09000000
   C     45.39000000    45.76000000    32.83000000
   C     44.50000000    45.57000000    34.06000000
   O     43.30000000    45.81000000    34.09000000
   C     45.46000000    44.45000000    32.06000000
   H     47.48000000    45.57000000    33.15000000
   H     44.87000000    46.46000000    32.18000000
   H     44.41000000    44.17000000    31.92000000
   H     45.82000000    44.77000000    31.08000000
   H     46.02000000    43.67000000    32.58000000
   N     45.14000000    45.15000000    35.15000000
   C     44.40000000    45.04000000    36.40000000
   C     43.78000000    46.33000000    36.89000000
   O     42.58000000    46.43000000    37.15000000
   C     45.28000000    44.32000000    37.42000000
   H     46.12000000    44.89000000    35.15000000
   H     43.56000000    44.37000000    36.21000000
   H     45.58000000    43.31000000    37.12000000
   H     46.16000000    44.95000000    37.57000000
   H     44.74000000    44.27000000    38.36000000
   N     44.58000000    47.40000000    36.81000000
   C     44.13000000    48.75000000    37.06000000
   C     43.15000000    49.22000000    35.99000000
   O     42.34000000    50.09000000    36.33000000
   C     45.33000000    49.69000000    37.20000000
   C     46.32000000    49.31000000    38.29000000
   C     47.41000000    50.36000000    38.48000000
   O     48.57000000    49.92000000    38.40000000
   O     47.20000000    51.58000000    38.70000000
   H     45.53000000    47.36000000    36.47000000
   H     43.65000000    48.86000000    38.03000000
   H     44.99000000    50.72000000    37.24000000
   H     45.82000000    49.59000000    36.23000000
   H     46.76000000    48.33000000    38.10000000
   H     45.71000000    49.24000000    39.19000000
   N     43.13000000    48.76000000    34.74000000
   C     42.26000000    49.28000000    33.71000000
   H     41.37300000    49.71500000    34.17000000
   H     42.78700000    50.04700000    33.14200000
   H     41.96300000    48.47100000    33.04200000
   H     43.83000000    48.06000000    34.56000000
  Ca     49.88000000    52.15000000    38.69000000
   O     50.67000000    50.51000000    36.57000000
   H     50.26000000    49.72000000    36.92000000
   H     51.03000000    50.24000000    35.73000000
   O     51.48000000    50.13000000    39.49000000
   H     51.43000000    50.02000000    40.44000000
   H     51.98000000    49.38000000    39.19000000

Ca 1.00



