%chk=loop2.holoCaM-CaMKII.run87.water2.chk
%nprocshared=20
%mem=10GB
%nosave
#b3lyp/svp scf=(tight,noincore,xqc) Test 
#IOP(5/87=12) Density=Current Pop=(MK,readradii) iop(6/33=2) iop(6/42=6)

loop2.holoCaM-CaMKII.run87.water2 

   -2  1 
   C     55.38000000    47.39000000   -17.74000000
   C     56.32000000    47.26000000   -18.93000000
   O     57.50000000    46.96000000   -18.76000000
   H     54.41800000    46.94100000   -17.98700000
   H     55.80900000    46.87700000   -16.87900000
   H     55.23800000    48.44400000   -17.50200000
   N     55.94000000    47.39000000   -20.21000000
   C     56.79000000    47.06000000   -21.34000000
   C     58.12000000    47.80000000   -21.30000000
   O     58.26000000    48.94000000   -20.86000000
   C     56.09000000    47.35000000   -22.67000000
   C     56.54000000    46.42000000   -23.78000000
   O     57.46000000    45.59000000   -23.62000000
   O     55.99000000    46.36000000   -24.90000000
   H     54.95000000    47.54000000   -20.36000000
   H     57.01000000    46.00000000   -21.28000000
   H     56.37000000    48.38000000   -22.90000000
   H     55.00000000    47.42000000   -22.64000000
   N     59.16000000    47.13000000   -21.81000000
   C     60.47000000    47.65000000   -22.14000000
   C     60.86000000    47.57000000   -23.61000000
   O     61.94000000    48.02000000   -23.98000000
   C     61.55000000    47.13000000   -21.21000000
   H     59.01000000    46.13000000   -21.89000000
   H     60.43000000    48.73000000   -21.98000000
   H     62.60000000    47.25000000   -21.48000000
   H     61.37000000    47.65000000   -20.26000000
   H     61.47000000    46.06000000   -21.05000000
   N     60.15000000    46.82000000   -24.46000000
   C     60.72000000    46.54000000   -25.76000000
   C     59.73000000    46.42000000   -26.91000000
   O     60.18000000    46.39000000   -28.05000000
   C     61.46000000    45.21000000   -25.66000000
   C     60.68000000    44.00000000   -25.17000000
   O     59.44000000    43.94000000   -25.36000000
   O     61.28000000    43.16000000   -24.46000000
   H     59.29000000    46.37000000   -24.17000000
   H     61.37000000    47.32000000   -26.16000000
   H     62.17000000    45.33000000   -24.85000000
   H     61.99000000    45.10000000   -26.60000000
   N     58.42000000    46.34000000   -26.72000000
   C     57.52000000    46.26000000   -27.86000000
   C     57.40000000    44.88000000   -28.48000000
   O     56.90000000    44.80000000   -29.60000000
   H     58.03000000    46.43000000   -25.79000000
   H     57.90000000    46.94000000   -28.63000000
   H     56.54000000    46.58000000   -27.52000000
   N     57.90000000    43.82000000   -27.83000000
   C     57.87000000    42.47000000   -28.36000000
   C     56.52000000    41.78000000   -28.24000000
   O     56.34000000    40.66000000   -28.70000000
   C     59.04000000    41.76000000   -27.70000000
   C     58.83000000    41.29000000   -26.27000000
   N     59.90000000    40.70000000   -25.71000000
   O     57.83000000    41.47000000   -25.57000000
   H     58.51000000    43.97000000   -27.03000000
   H     58.14000000    42.56000000   -29.41000000
   H     59.87000000    42.47000000   -27.63000000
   H     59.38000000    40.89000000   -28.27000000
   H     60.66000000    40.43000000   -26.31000000
   H     59.91000000    40.50000000   -24.72000000
   N     55.50000000    42.51000000   -27.76000000
   C     54.15000000    41.99000000   -27.77000000
   C     53.78000000    41.03000000   -26.65000000
   O     52.59000000    40.77000000   -26.47000000
   H     55.71000000    43.39000000   -27.33000000
   H     54.02000000    41.46000000   -28.72000000
   H     53.43000000    42.81000000   -27.84000000
   N     54.80000000    40.56000000   -25.93000000
   C     54.65000000    39.74000000   -24.75000000
   C     55.23000000    40.37000000   -23.49000000
   O     56.09000000    41.24000000   -23.51000000
   C     55.33000000    38.38000000   -24.97000000
   C     54.80000000    37.62000000   -26.19000000
   O     56.70000000    38.56000000   -25.21000000
   H     55.73000000    40.90000000   -26.14000000
   H     53.63000000    39.43000000   -24.54000000
   H     55.21000000    37.70000000   -24.13000000
   H     57.11000000    39.16000000   -24.58000000
   H     53.72000000    37.78000000   -26.18000000
   H     55.11000000    38.12000000   -27.11000000
   H     55.16000000    36.60000000   -26.07000000
   N     54.79000000    39.93000000   -22.31000000
   C     55.46000000    40.23000000   -21.06000000
   C     56.65000000    39.29000000   -20.87000000
   O     56.56000000    38.11000000   -21.20000000
   C     54.49000000    40.38000000   -19.90000000
   C     53.51000000    41.55000000   -20.02000000
   C     55.25000000    40.50000000   -18.58000000
   C     52.29000000    41.38000000   -19.12000000
   H     54.06000000    39.23000000   -22.32000000
   H     55.94000000    41.21000000   -21.11000000
   H     53.91000000    39.46000000   -19.84000000
   H     53.19000000    41.62000000   -21.06000000
   H     54.09000000    42.43000000   -19.74000000
   H     55.76000000    39.57000000   -18.33000000
   H     56.01000000    41.28000000   -18.53000000
   H     54.60000000    40.69000000   -17.72000000
   H     51.56000000    42.15000000   -19.39000000
   H     51.86000000    40.38000000   -19.07000000
   H     52.68000000    41.62000000   -18.13000000
   N     57.73000000    39.78000000   -20.27000000
   C     59.04000000    39.20000000   -20.04000000
   C     59.42000000    39.27000000   -18.57000000
   O     58.84000000    40.09000000   -17.87000000
   C     60.07000000    39.91000000   -20.92000000
   C     59.77000000    40.00000000   -22.41000000
   O     59.17000000    41.04000000   -22.76000000
   O     60.28000000    39.29000000   -23.30000000
   H     57.62000000    40.72000000   -19.94000000
   H     59.02000000    38.16000000   -20.38000000
   H     61.07000000    39.52000000   -20.74000000
   H     60.17000000    40.94000000   -20.59000000
   N     60.26000000    38.42000000   -17.96000000
   C     60.70000000    38.41000000   -16.58000000
   C     60.98000000    39.79000000   -16.00000000
   O     60.47000000    40.05000000   -14.91000000
   C     61.76000000    37.34000000   -16.37000000
   C     61.76000000    36.94000000   -14.92000000
   C     62.81000000    37.32000000   -14.07000000
   C     60.73000000    36.16000000   -14.39000000
   C     62.74000000    37.03000000   -12.70000000
   C     60.71000000    35.82000000   -13.03000000
   C     61.75000000    36.21000000   -12.17000000
   H     60.61000000    37.68000000   -18.55000000
   H     59.77000000    38.09000000   -16.11000000
   H     62.73000000    37.76000000   -16.65000000
   H     61.54000000    36.47000000   -16.99000000
   H     63.66000000    37.81000000   -14.53000000
   H     59.88000000    35.87000000   -14.99000000
   H     63.61000000    37.25000000   -12.11000000
   H     59.87000000    35.21000000   -12.73000000
   H     61.72000000    35.84000000   -11.15000000
   N     61.78000000    40.69000000   -16.56000000
   C     62.14000000    41.90000000   -15.84000000
   C     60.92000000    42.80000000   -15.79000000
   O     60.71000000    43.58000000   -14.86000000
   C     63.35000000    42.55000000   -16.51000000
   C     63.25000000    41.99000000   -17.93000000
   C     62.55000000    40.65000000   -17.79000000
   H     62.44000000    41.71000000   -14.81000000
   H     63.30000000    43.63000000   -16.42000000
   H     64.27000000    42.17000000   -16.06000000
   H     62.52000000    42.60000000   -18.46000000
   H     64.17000000    41.85000000   -18.51000000
   H     61.81000000    40.62000000   -18.59000000
   H     63.18000000    39.76000000   -17.85000000
   N     60.10000000    42.80000000   -16.84000000
   C     58.82000000    43.47000000   -16.86000000
   C     57.84000000    42.85000000   -15.88000000
   O     57.16000000    43.63000000   -15.21000000
   C     58.28000000    43.47000000   -18.29000000
   C     59.32000000    43.86000000   -19.34000000
   C     58.64000000    43.87000000   -20.70000000
   O     59.38000000    44.21000000   -21.65000000
   O     57.57000000    43.27000000   -20.94000000
   H     60.37000000    42.31000000   -17.69000000
   H     58.86000000    44.50000000   -16.50000000
   H     57.55000000    44.28000000   -18.25000000
   H     57.90000000    42.47000000   -18.50000000
   H     60.10000000    43.10000000   -19.41000000
   H     59.59000000    44.88000000   -19.06000000
   N     57.87000000    41.52000000   -15.78000000
   C     57.15000000    40.80000000   -14.75000000
   H     56.15900000    40.53400000   -15.11900000
   H     57.69600000    39.89300000   -14.49000000
   H     57.05100000    41.43100000   -13.86700000
   H     58.61000000    41.04000000   -16.27000000
  Ca     57.97000000    43.09000000   -23.55300000
   O     55.43000000    43.86000000   -22.30300000
   H     56.09000000    43.68000000   -21.63300000
   H     54.79000000    44.42000000   -21.86300000
   O     55.97000000    43.69000000   -25.15300000
   H     55.13000000    43.56000000   -24.70300000
   H     56.15000000    44.63000000   -25.06300000

Ca 1.00



