%chk=loop4.apoCaM-CA-Ng.Init31.run86.water4.chk
%nprocshared=20
%mem=10GB
%nosave
#b3lyp/svp scf=(tight,noincore,xqc) Test 
#IOP(5/87=12) Density=Current Pop=(MK,readradii) iop(6/33=2) iop(6/42=6)

loop4.apoCaM-CA-Ng.Init31.run86.water4 

   -3  1 
   C     84.99000000    48.95000000    43.51000000
   C     85.99000000    49.33000000    42.43000000
   O     85.52000000    49.92000000    41.46000000
   H     84.04800000    48.65900000    43.04600000
   H     85.38100000    48.11500000    44.09100000
   H     84.82200000    49.80300000    44.16700000
   N     87.31000000    49.16000000    42.46000000
   C     88.13000000    48.73000000    43.58000000
   C     88.35000000    49.86000000    44.57000000
   O     88.37000000    49.54000000    45.76000000
   C     89.43000000    48.12000000    43.08000000
   C     90.25000000    47.62000000    44.25000000
   O     91.30000000    48.21000000    44.58000000
   O     89.93000000    46.59000000    44.89000000
   H     87.86000000    49.34000000    41.63000000
   H     87.70000000    47.95000000    44.21000000
   H     89.95000000    48.92000000    42.54000000
   H     89.21000000    47.35000000    42.34000000
   N     88.27000000    51.11000000    44.12000000
   C     87.91000000    52.28000000    44.90000000
   C     88.82000000    53.45000000    44.56000000
   O     89.14000000    54.26000000    45.43000000
   C     86.43000000    52.57000000    44.65000000
   C     85.84000000    53.67000000    45.53000000
   C     86.07000000    52.93000000    43.21000000
   C     86.03000000    53.42000000    47.02000000
   H     88.19000000    51.21000000    43.12000000
   H     88.03000000    52.01000000    45.95000000
   H     85.91000000    51.64000000    44.89000000
   H     84.78000000    53.78000000    45.30000000
   H     86.34000000    54.62000000    45.36000000
   H     86.38000000    52.16000000    42.51000000
   H     84.98000000    52.86000000    43.14000000
   H     86.46000000    53.91000000    42.94000000
   H     87.06000000    53.55000000    47.34000000
   H     85.52000000    54.25000000    47.51000000
   H     85.49000000    52.51000000    47.29000000
   N     89.22000000    53.60000000    43.30000000
   C     90.00000000    54.72000000    42.82000000
   C     91.46000000    54.70000000    43.24000000
   O     91.96000000    55.80000000    43.44000000
   C     89.84000000    54.96000000    41.32000000
   C     90.46000000    56.27000000    40.85000000
   O     89.98000000    57.31000000    41.35000000
   O     91.37000000    56.25000000    39.99000000
   H     89.12000000    52.85000000    42.63000000
   H     89.62000000    55.59000000    43.36000000
   H     88.76000000    54.85000000    41.20000000
   H     90.47000000    54.24000000    40.79000000
   N     92.10000000    53.53000000    43.21000000
   C     93.49000000    53.34000000    43.60000000
   C     94.38000000    53.47000000    42.38000000
   O     94.01000000    53.94000000    41.31000000
   H     91.66000000    52.71000000    42.81000000
   H     93.58000000    52.41000000    44.16000000
   H     93.80000000    54.17000000    44.23000000
   N     95.66000000    53.17000000    42.61000000
   C     96.70000000    53.49000000    41.65000000
   C     96.91000000    54.99000000    41.49000000
   O     96.87000000    55.75000000    42.45000000
   C     97.98000000    52.74000000    42.01000000
   C     98.33000000    52.58000000    43.49000000
   O     99.52000000    52.69000000    43.88000000
   O     97.43000000    52.38000000    44.32000000
   H     95.89000000    52.78000000    43.52000000
   H     96.30000000    53.08000000    40.72000000
   H     98.84000000    53.22000000    41.53000000
   H     97.95000000    51.73000000    41.62000000
   N     97.19000000    55.50000000    40.29000000
   C     97.35000000    54.77000000    39.04000000
   C     97.98000000    55.65000000    37.98000000
   O     97.80000000    56.86000000    38.07000000
   H     97.06000000    56.50000000    40.21000000
   H     96.36000000    54.44000000    38.71000000
   H     97.90000000    53.86000000    39.30000000
   N     98.86000000    55.23000000    37.07000000
   C     99.20000000    53.86000000    36.73000000
   C     97.95000000    53.07000000    36.35000000
   O     96.84000000    53.58000000    36.23000000
   C    100.19000000    53.17000000    37.66000000
   C    101.33000000    52.55000000    36.86000000
   C    102.36000000    53.62000000    36.49000000
   N    103.40000000    53.86000000    37.30000000
   O    102.35000000    54.32000000    35.49000000
   H     99.19000000    55.92000000    36.40000000
   H     99.72000000    53.95000000    35.77000000
   H     99.66000000    52.44000000    38.27000000
   H    100.70000000    53.85000000    38.34000000
   H    101.01000000    52.00000000    35.98000000
   H    101.70000000    51.67000000    37.38000000
   H    103.47000000    53.31000000    38.14000000
   H    104.02000000    54.56000000    36.92000000
   N     98.17000000    51.75000000    36.27000000
   C     97.07000000    50.82000000    36.12000000
   C     97.26000000    49.96000000    34.87000000
   O     98.37000000    49.85000000    34.36000000
   C     96.84000000    49.99000000    37.38000000
   C     96.09000000    50.78000000    38.45000000
   C     98.11000000    49.30000000    37.86000000
   H     99.08000000    51.34000000    36.38000000
   H     96.14000000    51.34000000    35.92000000
   H     96.15000000    49.19000000    37.09000000
   H     95.68000000    50.09000000    39.19000000
   H     96.70000000    51.60000000    38.82000000
   H     95.23000000    51.20000000    37.92000000
   H     98.46000000    48.54000000    37.16000000
   H     98.88000000    49.97000000    38.24000000
   H     97.87000000    48.73000000    38.75000000
   N     96.14000000    49.37000000    34.44000000
   C     95.95000000    48.69000000    33.17000000
   C     95.87000000    47.18000000    33.28000000
   O     95.94000000    46.47000000    32.28000000
   C     94.71000000    49.18000000    32.42000000
   C     94.69000000    50.65000000    32.03000000
   N     95.71000000    51.16000000    31.33000000
   O     93.86000000    51.43000000    32.49000000
   H     95.32000000    49.35000000    35.03000000
   H     96.81000000    48.90000000    32.55000000
   H     93.80000000    48.93000000    32.97000000
   H     94.58000000    48.61000000    31.50000000
   H     96.33000000    50.49000000    30.90000000
   H     95.75000000    52.17000000    31.30000000
   N     95.81000000    46.58000000    34.48000000
   C     95.64000000    45.16000000    34.69000000
   C     94.80000000    45.03000000    35.95000000
   O     94.79000000    45.83000000    36.89000000
   C     97.02000000    44.53000000    34.76000000
   C     97.70000000    44.52000000    36.11000000
   C     97.67000000    43.39000000    36.95000000
   C     98.34000000    45.69000000    36.52000000
   C     98.42000000    43.39000000    38.13000000
   C     98.95000000    45.75000000    37.78000000
   C     99.09000000    44.56000000    38.52000000
   O     99.80000000    44.53000000    39.69000000
   H     95.88000000    47.15000000    35.31000000
   H     95.08000000    44.73000000    33.86000000
   H     97.66000000    44.80000000    33.92000000
   H     96.83000000    43.48000000    34.53000000
   H     97.07000000    42.55000000    36.64000000
   H     98.23000000    46.52000000    35.84000000
   H     98.34000000    42.50000000    38.74000000
   H     99.45000000    46.62000000    38.17000000
   H     99.87000000    43.62000000    39.99000000
   N     94.14000000    43.88000000    36.08000000
   C     93.48000000    43.44000000    37.29000000
   C     92.00000000    43.80000000    37.32000000
   O     91.28000000    43.58000000    36.34000000
   C     93.82000000    41.97000000    37.55000000
   C     93.41000000    41.52000000    38.95000000
   C     94.38000000    42.08000000    39.98000000
   O     94.11000000    43.13000000    40.60000000
   O     95.45000000    41.47000000    40.23000000
   H     94.27000000    43.19000000    35.35000000
   H     93.93000000    43.95000000    38.14000000
   H     94.89000000    41.84000000    37.42000000
   H     93.35000000    41.30000000    36.83000000
   H     93.37000000    40.43000000    38.94000000
   H     92.38000000    41.78000000    39.16000000
   N     91.55000000    44.49000000    38.37000000
   C     90.18000000    44.90000000    38.57000000
   C     89.75000000    46.13000000    37.78000000
   O     88.82000000    46.85000000    38.15000000
   C     89.81000000    45.08000000    40.04000000
   C     90.28000000    43.91000000    40.90000000
   C     89.87000000    44.06000000    42.36000000
   O     88.68000000    43.92000000    42.70000000
   O     90.74000000    44.23000000    43.24000000
   H     92.23000000    44.70000000    39.09000000
   H     89.53000000    44.06000000    38.30000000
   H     88.74000000    44.91000000    40.16000000
   H     90.12000000    46.03000000    40.46000000
   H     91.37000000    43.94000000    40.89000000
   H     90.05000000    42.94000000    40.46000000
   N     90.53000000    46.42000000    36.74000000
   C     90.37000000    47.44000000    35.73000000
   H     89.65000000    48.18200000    36.07500000
   H     91.32900000    47.92300000    35.54600000
   H     90.00800000    46.98500000    34.80800000
   H     91.29000000    45.78000000    36.53000000
  Ca     89.00000000    44.34000000    45.32000000
   O     91.55000000    44.06000000    46.45000000
   H     92.07000000    43.27000000    46.31000000
   H     91.55000000    44.18000000    47.40000000
   O     89.13000000    41.73000000    44.74000000
   H     89.42000000    41.16000000    45.46000000
   H     89.26000000    41.20000000    43.95000000
   O     88.74000000    45.66000000    47.73000000
   H     88.23000000    46.21000000    48.33000000
   H     89.45000000    45.31000000    48.27000000
   O     88.95000000    42.81000000    47.67000000
   H     88.71000000    42.97000000    48.58000000
   H     89.66000000    42.17000000    47.72000000

Ca 1.00



