%chk=loop4.apoCaM-CA-Ng.Init31.run57.water4.chk
%nprocshared=20
%mem=10GB
%nosave
#b3lyp/svp scf=(tight,noincore,xqc) Test 
#IOP(5/87=12) Density=Current Pop=(MK,readradii) iop(6/33=2) iop(6/42=6)

loop4.apoCaM-CA-Ng.Init31.run57.water4 

   -3  1 
   C     87.82000000    47.69000000     7.01000000
   C     89.20000000    48.17000000     7.45000000
   O     89.48000000    49.36000000     7.32000000
   H     87.13100000    48.53400000     6.99300000
   H     87.88700000    47.25600000     6.01200000
   H     87.45600000    46.93900000     7.71000000
   N     90.01000000    47.31000000     8.06000000
   C     89.76000000    46.14000000     8.88000000
   C     89.37000000    46.41000000    10.33000000
   O     88.55000000    45.72000000    10.95000000
   C     90.96000000    45.19000000     8.86000000
   C     91.49000000    44.96000000     7.45000000
   O     92.35000000    45.73000000     6.96000000
   O     91.09000000    43.92000000     6.89000000
   H     90.98000000    47.55000000     7.91000000
   H     89.01000000    45.48000000     8.44000000
   H     90.62000000    44.27000000     9.33000000
   H     91.70000000    45.57000000     9.56000000
   N     90.04000000    47.36000000    10.98000000
   C     90.15000000    47.36000000    12.42000000
   C     90.95000000    46.19000000    12.99000000
   O     90.71000000    45.80000000    14.13000000
   C     90.58000000    48.72000000    12.95000000
   C     89.67000000    49.90000000    12.61000000
   C     90.93000000    48.86000000    14.43000000
   C     88.24000000    49.83000000    13.13000000
   H     90.71000000    47.79000000    10.36000000
   H     89.16000000    47.18000000    12.85000000
   H     91.51000000    48.91000000    12.42000000
   H     89.71000000    50.07000000    11.53000000
   H     90.13000000    50.79000000    13.03000000
   H     90.12000000    48.36000000    14.96000000
   H     91.88000000    48.36000000    14.66000000
   H     91.07000000    49.88000000    14.79000000
   H     87.92000000    50.86000000    13.27000000
   H     87.66000000    49.22000000    12.44000000
   H     88.16000000    49.44000000    14.15000000
   N     92.03000000    45.84000000    12.29000000
   C     93.03000000    44.93000000    12.81000000
   C     93.63000000    44.05000000    11.72000000
   O     93.86000000    42.85000000    11.87000000
   C     94.13000000    45.84000000    13.35000000
   C     95.03000000    44.93000000    14.18000000
   O     96.27000000    45.01000000    14.03000000
   O     94.54000000    44.10000000    14.97000000
   H     92.18000000    46.32000000    11.42000000
   H     92.61000000    44.37000000    13.64000000
   H     93.72000000    46.55000000    14.06000000
   H     94.63000000    46.42000000    12.57000000
   N     93.91000000    44.70000000    10.59000000
   C     94.61000000    44.13000000     9.45000000
   C     96.10000000    44.46000000     9.44000000
   O     96.59000000    45.20000000    10.29000000
   H     93.73000000    45.69000000    10.56000000
   H     94.13000000    44.52000000     8.56000000
   H     94.53000000    43.04000000     9.45000000
   N     96.88000000    43.93000000     8.50000000
   C     98.28000000    44.14000000     8.20000000
   C     99.05000000    42.83000000     8.06000000
   O     98.59000000    41.83000000     7.52000000
   C     98.48000000    44.98000000     6.94000000
   C     97.41000000    44.79000000     5.88000000
   O     96.49000000    45.63000000     5.76000000
   O     97.36000000    43.74000000     5.20000000
   H     96.57000000    43.13000000     7.97000000
   H     98.70000000    44.70000000     9.03000000
   H     99.52000000    44.88000000     6.63000000
   H     98.33000000    45.98000000     7.35000000
   N    100.30000000    42.89000000     8.53000000
   C    101.11000000    43.97000000     9.05000000
   C    100.66000000    44.47000000    10.42000000
   O     99.76000000    43.97000000    11.08000000
   H    100.80000000    42.03000000     8.36000000
   H    101.03000000    44.80000000     8.36000000
   H    102.17000000    43.71000000     8.98000000
   N    101.23000000    45.59000000    10.89000000
   C    102.13000000    46.49000000    10.20000000
   C    101.55000000    47.20000000     8.99000000
   O    100.39000000    47.01000000     8.62000000
   C    103.51000000    45.87000000     9.98000000
   C    104.14000000    45.17000000    11.18000000
   C    104.44000000    46.11000000    12.34000000
   N    103.80000000    45.93000000    13.50000000
   O    105.20000000    47.07000000    12.25000000
   H    100.91000000    45.85000000    11.81000000
   H    102.31000000    47.33000000    10.87000000
   H    104.21000000    46.63000000     9.62000000
   H    103.50000000    45.15000000     9.16000000
   H    105.10000000    44.78000000    10.85000000
   H    103.43000000    44.43000000    11.56000000
   H    103.04000000    45.27000000    13.55000000
   H    103.96000000    46.63000000    14.21000000
   N    102.23000000    48.11000000     8.29000000
   C    101.91000000    48.85000000     7.09000000
   C    102.28000000    50.33000000     7.12000000
   O    103.28000000    50.71000000     7.72000000
   C    102.55000000    48.12000000     5.91000000
   C    101.87000000    46.83000000     5.47000000
   C    104.04000000    47.80000000     6.01000000
   H    103.13000000    48.41000000     8.63000000
   H    100.83000000    48.82000000     6.92000000
   H    102.46000000    48.83000000     5.09000000
   H    102.06000000    46.62000000     4.42000000
   H    102.22000000    45.94000000     6.00000000
   H    100.79000000    46.96000000     5.59000000
   H    104.19000000    46.92000000     6.63000000
   H    104.44000000    47.64000000     5.01000000
   H    104.45000000    48.70000000     6.47000000
   N    101.39000000    51.15000000     6.53000000
   C    101.36000000    52.59000000     6.46000000
   C    100.80000000    53.18000000     5.17000000
   O    100.25000000    54.28000000     5.21000000
   C    100.71000000    53.07000000     7.75000000
   C    100.83000000    54.54000000     8.14000000
   N     99.68000000    55.22000000     8.08000000
   O    101.90000000    55.01000000     8.53000000
   H    100.59000000    50.73000000     6.09000000
   H    102.40000000    52.92000000     6.51000000
   H    100.97000000    52.44000000     8.60000000
   H     99.64000000    52.96000000     7.58000000
   H     98.81000000    54.78000000     7.83000000
   H     99.70000000    56.14000000     8.51000000
   N    100.86000000    52.48000000     4.04000000
   C    100.19000000    52.89000000     2.82000000
   C     99.58000000    51.75000000     2.02000000
   O     99.90000000    50.58000000     2.23000000
   C    101.18000000    53.59000000     1.90000000
   C    100.78000000    54.11000000     0.54000000
   C     99.84000000    55.15000000     0.41000000
   C    101.29000000    53.53000000    -0.62000000
   C     99.48000000    55.64000000    -0.84000000
   C    101.03000000    54.13000000    -1.86000000
   C    100.00000000    55.08000000    -2.03000000
   O     99.72000000    55.60000000    -3.25000000
   H    101.35000000    51.60000000     3.96000000
   H     99.37000000    53.58000000     3.04000000
   H    102.11000000    53.03000000     1.85000000
   H    101.48000000    54.51000000     2.40000000
   H     99.40000000    55.67000000     1.25000000
   H    102.06000000    52.77000000    -0.57000000
   H     98.70000000    56.38000000    -0.94000000
   H    101.44000000    53.78000000    -2.79000000
   H     99.06000000    56.31000000    -3.18000000
   N     98.62000000    52.05000000     1.15000000
   C     97.89000000    51.06000000     0.39000000
   C     96.52000000    50.81000000     1.00000000
   O     95.81000000    51.74000000     1.39000000
   C     97.82000000    51.59000000    -1.05000000
   C     96.91000000    50.79000000    -1.97000000
   C     96.75000000    51.35000000    -3.38000000
   O     96.44000000    52.54000000    -3.58000000
   O     96.91000000    50.62000000    -4.39000000
   H     98.37000000    53.02000000     1.05000000
   H     98.47000000    50.14000000     0.39000000
   H     98.84000000    51.61000000    -1.43000000
   H     97.40000000    52.59000000    -0.92000000
   H     95.92000000    50.66000000    -1.53000000
   H     97.45000000    49.85000000    -2.00000000
   N     96.04000000    49.58000000     1.20000000
   C     94.85000000    49.17000000     1.93000000
   C     94.84000000    49.40000000     3.43000000
   O     94.31000000    48.66000000     4.26000000
   C     94.67000000    47.69000000     1.59000000
   C     93.21000000    47.30000000     1.79000000
   C     92.91000000    45.85000000     1.42000000
   O     92.75000000    45.46000000     0.24000000
   O     92.89000000    45.02000000     2.35000000
   H     96.51000000    48.79000000     0.78000000
   H     94.05000000    49.77000000     1.50000000
   H     95.29000000    47.09000000     2.25000000
   H     94.87000000    47.45000000     0.55000000
   H     92.62000000    48.02000000     1.23000000
   H     92.84000000    47.33000000     2.82000000
   N     95.72000000    50.30000000     3.88000000
   C     95.73000000    50.87000000     5.22000000
   H     95.35400000    51.89200000     5.18200000
   H     95.09400000    50.27300000     5.87400000
   H     96.74900000    50.87300000     5.60700000
   H     95.99000000    51.02000000     3.23000000
  Ca     92.46000000    44.21000000     4.68000000
   O     94.56000000    43.44000000     6.46000000
   H     95.15000000    44.05000000     6.03000000
   H     95.10000000    42.67000000     6.64000000
   O     95.02000000    43.41000000     3.64000000
   H     95.48000000    43.39000000     2.80000000
   H     95.72000000    43.58000000     4.28000000
   O     94.27000000    46.17000000     4.56000000
   H     94.27000000    47.13000000     4.54000000
   H     95.18000000    45.93000000     4.72000000
   O     92.12000000    41.70000000     4.25000000
   H     92.56000000    40.99000000     4.73000000
   H     91.72000000    41.26000000     3.50000000

Ca 1.00



