%chk=loop1.apoCaM-CA-Ng.Init31.run65.water4.chk
%nprocshared=20
%mem=10GB
%nosave
#b3lyp/svp scf=(tight,noincore,xqc) Test 
#IOP(5/87=12) Density=Current Pop=(MK,readradii) iop(6/33=2) iop(6/42=6)

loop1.apoCaM-CA-Ng.Init31.run65.water4 

   0  1 
   C     68.37000000    69.57000000    26.68000000
   C     67.71000000    70.26000000    25.50000000
   O     67.16000000    71.35000000    25.57000000
   H     69.27600000    70.11000000    26.95600000
   H     67.68300000    69.55900000    27.52600000
   H     68.62700000    68.54700000    26.40600000
   N     67.54000000    69.59000000    24.35000000
   C     66.75000000    69.96000000    23.19000000
   C     65.39000000    69.28000000    23.19000000
   O     65.16000000    68.27000000    23.86000000
   C     67.57000000    69.78000000    21.91000000
   C     67.07000000    70.62000000    20.75000000
   O     66.04000000    71.33000000    20.85000000
   O     67.68000000    70.64000000    19.66000000
   H     67.95000000    68.67000000    24.37000000
   H     66.46000000    71.00000000    23.28000000
   H     67.63000000    68.72000000    21.68000000
   H     68.61000000    70.09000000    22.00000000
   N     64.43000000    69.71000000    22.37000000
   C     63.11000000    69.13000000    22.27000000
   C     63.18000000    67.73000000    21.68000000
   O     62.31000000    66.99000000    22.15000000
   C     62.17000000    70.06000000    21.51000000
   C     60.71000000    69.63000000    21.46000000
   C     59.87000000    70.82000000    21.02000000
   C     58.57000000    70.48000000    20.29000000
   N     57.50000000    69.95000000    21.14000000
   H     64.65000000    70.49000000    21.77000000
   H     62.73000000    69.09000000    23.29000000
   H     62.54000000    70.21000000    20.49000000
   H     62.09000000    71.02000000    22.02000000
   H     60.32000000    69.44000000    22.47000000
   H     60.58000000    68.77000000    20.81000000
   H     60.50000000    71.45000000    20.39000000
   H     59.61000000    71.35000000    21.94000000
   H     58.80000000    69.77000000    19.50000000
   H     58.13000000    71.37000000    19.83000000
   H     57.12000000    70.63000000    21.78000000
   H     56.74000000    69.73000000    20.51000000
   H     57.76000000    69.09000000    21.60000000
   N     63.97000000    67.32000000    20.68000000
   C     64.62000000    68.12000000    19.66000000
   C     65.76000000    67.31000000    19.06000000
   O     65.66000000    66.10000000    18.88000000
   C     63.69000000    68.44000000    18.49000000
   C     63.96000000    69.69000000    17.67000000
   O     64.89000000    70.46000000    17.99000000
   O     63.14000000    69.90000000    16.75000000
   H     64.00000000    66.32000000    20.54000000
   H     65.04000000    69.03000000    20.07000000
   H     62.71000000    68.54000000    18.97000000
   H     63.63000000    67.55000000    17.85000000
   N     66.85000000    68.01000000    18.72000000
   C     67.99000000    67.43000000    18.03000000
   C     69.30000000    68.21000000    18.02000000
   O     70.24000000    67.84000000    18.71000000
   H     66.99000000    68.97000000    18.98000000
   H     67.70000000    67.26000000    16.99000000
   H     68.12000000    66.41000000    18.36000000
   N     69.34000000    69.32000000    17.27000000
   C     70.49000000    70.16000000    16.98000000
   C     71.52000000    69.39000000    16.18000000
   O     71.09000000    68.56000000    15.38000000
   C     70.05000000    71.40000000    16.22000000
   C     68.84000000    72.07000000    16.85000000
   O     68.91000000    72.85000000    17.82000000
   O     67.69000000    71.74000000    16.48000000
   H     68.49000000    69.77000000    16.98000000
   H     70.94000000    70.40000000    17.94000000
   H     69.78000000    71.10000000    15.21000000
   H     70.80000000    72.19000000    16.13000000
   N     72.81000000    69.71000000    16.03000000
   C     73.55000000    70.74000000    16.73000000
   C     73.94000000    71.95000000    15.89000000
   O     74.15000000    73.05000000    16.39000000
   H     73.26000000    69.22000000    15.27000000
   H     74.46000000    70.37000000    17.20000000
   H     72.96000000    71.05000000    17.59000000
   N     73.96000000    71.71000000    14.58000000
   C     74.26000000    72.70000000    13.57000000
   C     75.70000000    73.19000000    13.63000000
   O     75.89000000    74.40000000    13.56000000
   C     73.17000000    73.74000000    13.31000000
   C     71.74000000    73.24000000    13.18000000
   O     73.36000000    74.30000000    12.03000000
   H     73.73000000    70.79000000    14.22000000
   H     74.25000000    72.13000000    12.64000000
   H     73.22000000    74.53000000    14.07000000
   H     73.84000000    75.09000000    12.29000000
   H     71.17000000    73.79000000    12.43000000
   H     71.74000000    72.15000000    13.05000000
   H     71.34000000    73.44000000    14.17000000
   N     76.69000000    72.31000000    13.76000000
   C     78.12000000    72.48000000    13.61000000
   C     78.48000000    73.05000000    12.25000000
   O     79.31000000    72.41000000    11.61000000
   C     78.77000000    73.33000000    14.70000000
   C     78.21000000    72.98000000    16.07000000
   C     80.28000000    73.11000000    14.62000000
   C     78.28000000    71.53000000    16.56000000
   H     76.35000000    71.36000000    13.74000000
   H     78.57000000    71.48000000    13.63000000
   H     78.62000000    74.41000000    14.64000000
   H     77.19000000    73.32000000    16.22000000
   H     78.88000000    73.51000000    16.75000000
   H     80.83000000    73.50000000    15.47000000
   H     80.39000000    72.02000000    14.66000000
   H     80.73000000    73.36000000    13.66000000
   H     77.52000000    71.00000000    15.98000000
   H     79.26000000    71.09000000    16.38000000
   H     78.02000000    71.66000000    17.61000000
   N     77.92000000    74.12000000    11.68000000
   C     78.39000000    74.78000000    10.48000000
   C     78.62000000    76.28000000    10.66000000
   O     78.02000000    76.88000000    11.54000000
   C     77.37000000    74.66000000     9.35000000
   C     76.10000000    75.45000000     9.67000000
   O     76.96000000    73.31000000     9.27000000
   H     77.24000000    74.51000000    12.32000000
   H     79.33000000    74.35000000    10.15000000
   H     77.77000000    74.99000000     8.40000000
   H     77.77000000    72.81000000     9.13000000
   H     75.63000000    75.17000000    10.61000000
   H     76.37000000    76.51000000     9.73000000
   H     75.42000000    75.37000000     8.82000000
   N     79.61000000    76.81000000     9.93000000
   C     80.12000000    78.11000000    10.29000000
   C     79.15000000    79.24000000     9.97000000
   O     78.53000000    79.30000000     8.91000000
   C     81.42000000    78.39000000     9.54000000
   C     82.48000000    77.43000000    10.09000000
   O     81.22000000    78.15000000     8.16000000
   H     80.20000000    76.17000000     9.41000000
   H     80.12000000    78.13000000    11.38000000
   H     81.78000000    79.40000000     9.74000000
   H     81.10000000    77.20000000     8.09000000
   H     83.39000000    77.77000000     9.60000000
   H     82.60000000    77.56000000    11.16000000
   H     82.18000000    76.38000000    10.07000000
   N     79.05000000    80.17000000    10.92000000
   C     78.01000000    81.17000000    10.99000000
   C     76.63000000    80.53000000    10.93000000
   O     75.80000000    80.79000000    10.07000000
   C     78.18000000    82.25000000     9.92000000
   C     79.45000000    83.08000000    10.10000000
   C     79.68000000    83.72000000     8.73000000
   C     80.55000000    84.96000000     8.59000000
   N     81.93000000    84.51000000     8.79000000
   H     79.72000000    80.09000000    11.68000000
   H     77.97000000    81.54000000    12.02000000
   H     77.35000000    82.95000000     9.81000000
   H     78.03000000    81.73000000     8.98000000
   H     80.30000000    82.50000000    10.46000000
   H     79.20000000    83.88000000    10.79000000
   H     78.72000000    84.05000000     8.34000000
   H     80.10000000    82.96000000     8.07000000
   H     80.19000000    85.65000000     9.35000000
   H     80.28000000    85.44000000     7.64000000
   H     82.03000000    83.56000000     8.47000000
   H     82.47000000    85.03000000     8.10000000
   H     82.25000000    84.55000000     9.74000000
   N     76.38000000    79.57000000    11.83000000
   C     75.07000000    79.10000000    12.24000000
   C     75.09000000    77.74000000    12.93000000
   O     74.28000000    76.88000000    12.62000000
   C     74.33000000    80.19000000    13.00000000
   C     72.98000000    80.53000000    12.38000000
   C     72.06000000    81.53000000    13.06000000
   O     72.03000000    81.62000000    14.31000000
   O     71.47000000    82.42000000    12.41000000
   H     77.20000000    79.36000000    12.38000000
   H     74.52000000    78.98000000    11.31000000
   H     74.81000000    81.17000000    12.92000000
   H     74.23000000    79.93000000    14.06000000
   H     72.47000000    79.57000000    12.23000000
   H     73.16000000    80.95000000    11.40000000
   N     75.91000000    77.37000000    13.92000000
   C     76.88000000    78.25000000    14.55000000
   H     77.76000000    78.33500000    13.91300000
   H     76.43800000    79.23600000    14.69200000
   H     77.17000000    77.83900000    15.51700000
   H     75.75000000    76.51000000    14.43000000
  Ca     66.21000000    72.66000000    18.48000000
   O     67.36000000    73.99000000    20.42000000
   H     67.13000000    73.63000000    21.28000000
   H     68.00000000    74.68000000    20.61000000
   O     64.01000000    73.57000000    19.74000000
   H     63.06000000    73.70000000    19.68000000
   H     64.24000000    73.87000000    20.62000000
   O     66.60000000    75.16000000    17.32000000
   H     67.41000000    75.58000000    17.02000000
   H     65.90000000    75.75000000    17.05000000
   O     64.59000000    72.54000000    16.29000000
   H     64.45000000    71.63000000    16.55000000
   H     63.71000000    72.88000000    16.12000000

Ca 1.00



