%chk=loop2.holoCaM.run75.water1.chk
%nprocshared=20
%mem=10GB
%nosave
#b3lyp/svp scf=(tight,noincore,xqc) Test 
#IOP(5/87=12) Density=Current Pop=(MK,readradii) iop(6/33=2) iop(6/42=6)

loop2.holoCaM.run75.water1 

   -2  1 
   C     47.41000000    46.15000000    19.51000000
   C     46.22000000    45.86000000    20.41000000
   O     46.29000000    46.31000000    21.55000000
   H     48.27700000    45.59300000    19.86400000
   H     47.17600000    45.84700000    18.48900000
   H     47.63100000    47.21700000    19.53200000
   N     45.34000000    44.92000000    20.04000000
   C     44.17000000    44.58000000    20.82000000
   C     44.59000000    43.90000000    22.12000000
   O     45.08000000    42.78000000    22.01000000
   C     43.20000000    43.79000000    19.95000000
   C     41.95000000    43.19000000    20.57000000
   O     41.27000000    42.51000000    19.77000000
   O     41.67000000    43.47000000    21.76000000
   H     45.39000000    44.47000000    19.13000000
   H     43.65000000    45.49000000    21.11000000
   H     43.76000000    42.99000000    19.48000000
   H     42.83000000    44.44000000    19.16000000
   N     44.42000000    44.50000000    23.30000000
   C     45.04000000    44.17000000    24.57000000
   C     44.25000000    43.23000000    25.48000000
   O     44.87000000    42.39000000    26.12000000
   C     45.61000000    45.44000000    25.19000000
   H     44.01000000    45.42000000    23.26000000
   H     45.91000000    43.60000000    24.27000000
   H     46.18000000    45.20000000    26.09000000
   H     46.30000000    45.93000000    24.51000000
   H     44.75000000    46.08000000    25.39000000
   N     42.93000000    43.14000000    25.34000000
   C     42.23000000    41.95000000    25.77000000
   C     42.00000000    40.90000000    24.69000000
   O     41.65000000    39.77000000    25.01000000
   C     40.92000000    42.29000000    26.49000000
   C     40.03000000    43.39000000    25.95000000
   O     38.96000000    43.63000000    26.54000000
   O     40.31000000    43.99000000    24.89000000
   H     42.43000000    43.87000000    24.85000000
   H     42.77000000    41.34000000    26.50000000
   H     41.17000000    42.66000000    27.49000000
   H     40.37000000    41.39000000    26.77000000
   N     42.23000000    41.22000000    23.41000000
   C     42.22000000    40.30000000    22.29000000
   C     40.85000000    40.03000000    21.67000000
   O     40.66000000    39.01000000    21.02000000
   H     42.59000000    42.13000000    23.18000000
   H     42.64000000    39.33000000    22.56000000
   H     42.86000000    40.81000000    21.58000000
   N     39.87000000    40.91000000    21.89000000
   C     38.48000000    40.62000000    21.62000000
   C     38.04000000    41.11000000    20.26000000
   O     36.90000000    41.59000000    20.20000000
   C     37.73000000    41.21000000    22.82000000
   C     37.86000000    42.72000000    22.93000000
   N     37.23000000    43.27000000    23.98000000
   O     38.56000000    43.46000000    22.25000000
   H     40.12000000    41.71000000    22.46000000
   H     38.28000000    39.55000000    21.60000000
   H     38.13000000    40.79000000    23.74000000
   H     36.67000000    40.98000000    22.80000000
   H     36.81000000    42.76000000    24.74000000
   H     37.15000000    44.27000000    23.92000000
   N     38.86000000    41.14000000    19.20000000
   C     38.54000000    41.51000000    17.84000000
   C     38.16000000    42.97000000    17.69000000
   O     37.56000000    43.35000000    16.69000000
   H     39.76000000    40.71000000    19.35000000
   H     37.71000000    40.96000000    17.40000000
   H     39.48000000    41.34000000    17.30000000
   N     38.62000000    43.91000000    18.52000000
   C     38.09000000    45.25000000    18.66000000
   C     39.11000000    46.16000000    19.34000000
   O     39.83000000    45.70000000    20.22000000
   C     36.72000000    45.38000000    19.31000000
   C     35.61000000    44.84000000    18.41000000
   O     36.63000000    44.67000000    20.53000000
   H     39.42000000    43.66000000    19.09000000
   H     38.00000000    45.69000000    17.66000000
   H     36.44000000    46.42000000    19.47000000
   H     36.78000000    43.74000000    20.40000000
   H     35.64000000    43.75000000    18.49000000
   H     34.65000000    45.30000000    18.65000000
   H     35.77000000    45.12000000    17.37000000
   N     39.11000000    47.43000000    18.92000000
   C     39.91000000    48.50000000    19.49000000
   C     39.07000000    49.32000000    20.46000000
   O     38.03000000    49.83000000    20.07000000
   C     40.54000000    49.33000000    18.38000000
   C     41.40000000    48.42000000    17.51000000
   C     41.33000000    50.52000000    18.92000000
   C     42.51000000    47.62000000    18.19000000
   H     38.47000000    47.77000000    18.22000000
   H     40.66000000    48.00000000    20.11000000
   H     39.70000000    49.69000000    17.79000000
   H     41.85000000    49.10000000    16.78000000
   H     40.71000000    47.83000000    16.91000000
   H     40.59000000    51.14000000    19.42000000
   H     42.13000000    50.14000000    19.57000000
   H     41.69000000    51.08000000    18.06000000
   H     43.22000000    47.21000000    17.48000000
   H     43.04000000    48.31000000    18.84000000
   H     42.17000000    46.78000000    18.80000000
   N     39.42000000    49.25000000    21.75000000
   C     38.81000000    50.14000000    22.72000000
   C     39.72000000    51.36000000    22.82000000
   O     40.72000000    51.40000000    22.10000000
   C     38.59000000    49.46000000    24.08000000
   C     39.74000000    48.63000000    24.62000000
   O     40.63000000    49.24000000    25.26000000
   O     39.68000000    47.40000000    24.42000000
   H     40.33000000    48.87000000    21.97000000
   H     37.82000000    50.42000000    22.39000000
   H     37.70000000    48.87000000    23.90000000
   H     38.31000000    50.20000000    24.83000000
   N     39.44000000    52.34000000    23.68000000
   C     40.08000000    53.63000000    23.50000000
   C     41.53000000    53.68000000    23.97000000
   O     42.37000000    54.15000000    23.21000000
   C     39.25000000    54.70000000    24.21000000
   C     39.69000000    56.14000000    24.09000000
   C     39.89000000    56.71000000    22.83000000
   C     39.86000000    57.00000000    25.18000000
   C     40.26000000    58.06000000    22.68000000
   C     40.34000000    58.30000000    25.05000000
   C     40.61000000    58.84000000    23.79000000
   H     38.63000000    52.35000000    24.28000000
   H     40.12000000    53.73000000    22.41000000
   H     39.06000000    54.38000000    25.23000000
   H     38.33000000    54.72000000    23.62000000
   H     39.85000000    56.05000000    21.98000000
   H     39.67000000    56.61000000    26.17000000
   H     40.37000000    58.44000000    21.67000000
   H     40.63000000    58.90000000    25.91000000
   H     41.02000000    59.83000000    23.65000000
   N     41.99000000    53.03000000    25.04000000
   C     43.41000000    52.91000000    25.34000000
   C     44.30000000    52.19000000    24.34000000
   O     45.42000000    52.63000000    24.09000000
   C     43.48000000    52.08000000    26.63000000
   C     42.13000000    52.35000000    27.28000000
   C     41.15000000    52.62000000    26.14000000
   H     43.76000000    53.93000000    25.43000000
   H     43.59000000    51.00000000    26.54000000
   H     44.22000000    52.45000000    27.33000000
   H     41.87000000    51.62000000    28.05000000
   H     42.24000000    53.29000000    27.82000000
   H     40.61000000    51.70000000    25.93000000
   H     40.50000000    53.45000000    26.43000000
   N     43.74000000    51.24000000    23.59000000
   C     44.33000000    50.61000000    22.42000000
   C     44.18000000    51.54000000    21.23000000
   O     45.06000000    51.54000000    20.37000000
   C     43.59000000    49.30000000    22.20000000
   C     43.73000000    48.15000000    23.20000000
   C     42.54000000    47.20000000    23.10000000
   O     41.67000000    47.37000000    22.22000000
   O     42.38000000    46.26000000    23.90000000
   H     42.74000000    51.16000000    23.71000000
   H     45.36000000    50.44000000    22.71000000
   H     43.92000000    48.91000000    21.24000000
   H     42.53000000    49.54000000    22.10000000
   H     43.60000000    48.61000000    24.18000000
   H     44.58000000    47.48000000    23.08000000
   N     43.17000000    52.41000000    21.11000000
   C     43.22000000    53.44000000    20.10000000
   H     44.21800000    53.87800000    20.07700000
   H     42.99200000    53.00600000    19.12600000
   H     42.49000000    54.21500000    20.33400000
   H     42.40000000    52.35000000    21.77000000
  Ca     40.20000000    45.37000000    22.85000000
   O     37.64000000    46.17000000    22.76000000
   H     36.96000000    46.30000000    23.42000000
   H     37.17000000    45.80000000    22.01000000

Ca 1.00



