%chk=loop2.apoCaM-CA-Ng.Init31.run99.water4.chk
%nprocshared=20
%mem=10GB
%nosave
#b3lyp/svp scf=(tight,noincore,xqc) Test 
#IOP(5/87=12) Density=Current Pop=(MK,readradii) iop(6/33=2) iop(6/42=6)

loop2.apoCaM-CA-Ng.Init31.run99.water4 

   -2  1 
   C     61.43000000    52.56000000    27.59000000
   C     61.43000000    51.23000000    28.34000000
   O     60.38000000    50.74000000    28.76000000
   H     62.04300000    53.28100000    28.13000000
   H     61.83800000    52.41400000    26.59000000
   H     60.40900000    52.93600000    27.51500000
   N     62.61000000    50.69000000    28.64000000
   C     63.86000000    50.85000000    27.93000000
   C     65.07000000    50.53000000    28.80000000
   O     66.17000000    50.86000000    28.36000000
   C     63.84000000    49.88000000    26.75000000
   C     63.59000000    48.46000000    27.25000000
   O     62.46000000    47.99000000    27.00000000
   O     64.39000000    47.78000000    27.92000000
   H     62.55000000    49.88000000    29.24000000
   H     63.94000000    51.84000000    27.47000000
   H     64.81000000    49.83000000    26.24000000
   H     63.06000000    50.10000000    26.02000000
   N     64.92000000    50.02000000    30.02000000
   C     66.02000000    49.59000000    30.87000000
   C     65.91000000    48.16000000    31.39000000
   O     66.95000000    47.64000000    31.79000000
   C     66.19000000    50.68000000    31.92000000
   H     64.04000000    49.60000000    30.27000000
   H     66.91000000    49.50000000    30.25000000
   H     65.29000000    50.76000000    32.53000000
   H     67.03000000    50.44000000    32.58000000
   H     66.46000000    51.61000000    31.42000000
   N     64.79000000    47.44000000    31.26000000
   C     64.46000000    46.19000000    31.91000000
   C     64.88000000    44.97000000    31.11000000
   O     65.01000000    44.99000000    29.88000000
   C     63.03000000    46.04000000    32.40000000
   C     61.97000000    46.09000000    31.31000000
   O     60.81000000    45.79000000    31.66000000
   O     62.26000000    46.31000000    30.11000000
   H     63.98000000    47.88000000    30.85000000
   H     65.09000000    46.18000000    32.80000000
   H     62.81000000    46.89000000    33.04000000
   H     62.93000000    45.06000000    32.89000000
   N     65.10000000    43.87000000    31.83000000
   C     65.48000000    42.58000000    31.29000000
   C     64.26000000    41.86000000    30.74000000
   O     63.21000000    41.93000000    31.37000000
   H     64.93000000    43.89000000    32.83000000
   H     66.02000000    42.06000000    32.08000000
   H     66.17000000    42.84000000    30.49000000
   N     64.35000000    40.90000000    29.81000000
   C     63.27000000    40.08000000    29.29000000
   C     63.86000000    38.75000000    28.84000000
   O     64.97000000    38.68000000    28.30000000
   C     62.56000000    40.88000000    28.21000000
   C     61.78000000    41.95000000    28.97000000
   N     60.72000000    41.63000000    29.71000000
   O     62.12000000    43.13000000    28.98000000
   H     65.27000000    40.69000000    29.45000000
   H     62.66000000    39.85000000    30.16000000
   H     61.74000000    40.32000000    27.75000000
   H     63.22000000    41.39000000    27.50000000
   H     60.36000000    40.69000000    29.81000000
   H     60.15000000    42.39000000    30.05000000
   N     63.11000000    37.68000000    29.13000000
   C     63.34000000    36.35000000    28.62000000
   C     64.77000000    35.87000000    28.85000000
   O     65.46000000    35.60000000    27.87000000
   H     62.23000000    37.72000000    29.62000000
   H     63.18000000    36.39000000    27.54000000
   H     62.59000000    35.62000000    28.90000000
   N     65.28000000    35.65000000    30.06000000
   C     64.58000000    35.82000000    31.32000000
   C     65.25000000    36.81000000    32.25000000
   O     64.59000000    37.64000000    32.87000000
   C     64.18000000    34.54000000    32.05000000
   C     65.36000000    33.58000000    32.04000000
   O     63.94000000    34.65000000    33.44000000
   H     66.21000000    35.26000000    30.02000000
   H     63.64000000    36.35000000    31.17000000
   H     63.30000000    34.05000000    31.63000000
   H     63.69000000    33.83000000    33.87000000
   H     65.35000000    32.82000000    32.82000000
   H     65.28000000    32.98000000    31.13000000
   H     66.27000000    34.16000000    32.24000000
   N     66.59000000    36.82000000    32.33000000
   C     67.35000000    37.44000000    33.39000000
   C     66.94000000    36.95000000    34.77000000
   O     66.01000000    37.39000000    35.45000000
   C     67.44000000    38.96000000    33.29000000
   C     67.59000000    39.53000000    31.88000000
   C     68.54000000    39.36000000    34.26000000
   C     68.69000000    38.94000000    31.01000000
   H     67.10000000    36.19000000    31.73000000
   H     68.40000000    37.14000000    33.37000000
   H     66.50000000    39.37000000    33.66000000
   H     67.81000000    40.59000000    32.03000000
   H     66.69000000    39.34000000    31.29000000
   H     69.53000000    39.02000000    33.93000000
   H     68.55000000    40.45000000    34.30000000
   H     68.35000000    38.98000000    35.26000000
   H     68.33000000    37.95000000    30.74000000
   H     68.90000000    39.61000000    30.18000000
   H     69.70000000    38.90000000    31.42000000
   N     67.58000000    35.90000000    35.31000000
   C     68.54000000    35.01000000    34.69000000
   C     70.01000000    35.33000000    34.94000000
   O     70.88000000    35.07000000    34.11000000
   C     68.22000000    33.55000000    34.96000000
   C     68.21000000    33.19000000    36.44000000
   O     67.57000000    33.93000000    37.22000000
   O     68.85000000    32.16000000    36.74000000
   H     67.30000000    35.75000000    36.27000000
   H     68.44000000    35.11000000    33.61000000
   H     68.92000000    32.92000000    34.41000000
   H     67.19000000    33.42000000    34.61000000
   N     70.28000000    36.03000000    36.04000000
   C     71.50000000    36.66000000    36.50000000
   C     72.23000000    35.69000000    37.42000000
   O     71.52000000    34.95000000    38.09000000
   C     71.26000000    38.01000000    37.17000000
   C     70.45000000    38.02000000    38.44000000
   C     70.96000000    38.26000000    39.73000000
   C     69.08000000    37.73000000    38.34000000
   C     70.18000000    38.20000000    40.89000000
   C     68.35000000    37.55000000    39.52000000
   C     68.83000000    37.83000000    40.80000000
   H     69.53000000    36.13000000    36.72000000
   H     72.11000000    36.85000000    35.62000000
   H     70.66000000    38.66000000    36.53000000
   H     72.24000000    38.43000000    37.42000000
   H     72.00000000    38.53000000    39.79000000
   H     68.57000000    37.55000000    37.41000000
   H     70.68000000    38.39000000    41.83000000
   H     67.32000000    37.24000000    39.45000000
   H     68.19000000    37.58000000    41.63000000
   N     73.57000000    35.71000000    37.44000000
   C     74.48000000    36.69000000    36.90000000
   C     74.64000000    36.63000000    35.39000000
   O     74.30000000    35.64000000    34.74000000
   C     75.85000000    36.39000000    37.48000000
   C     75.54000000    35.79000000    38.85000000
   C     74.33000000    34.96000000    38.41000000
   H     74.26000000    37.73000000    37.16000000
   H     76.31000000    35.57000000    36.92000000
   H     76.51000000    37.26000000    37.44000000
   H     76.28000000    35.15000000    39.32000000
   H     75.16000000    36.58000000    39.49000000
   H     74.75000000    34.06000000    37.95000000
   H     73.70000000    34.57000000    39.20000000
   N     75.33000000    37.64000000    34.85000000
   C     75.56000000    37.73000000    33.42000000
   C     75.78000000    39.19000000    33.06000000
   O     76.72000000    39.54000000    32.34000000
   C     76.71000000    36.81000000    33.03000000
   C     76.61000000    36.35000000    31.58000000
   C     77.84000000    35.56000000    31.15000000
   O     78.83000000    36.16000000    30.69000000
   O     77.74000000    34.31000000    31.22000000
   H     75.65000000    38.43000000    35.38000000
   H     74.64000000    37.54000000    32.87000000
   H     76.70000000    35.90000000    33.64000000
   H     77.69000000    37.24000000    33.23000000
   H     76.50000000    37.20000000    30.90000000
   H     75.71000000    35.74000000    31.58000000
   N     74.96000000    40.16000000    33.45000000
   C     73.80000000    40.16000000    34.32000000
   H     72.94600000    39.74200000    33.78700000
   H     74.00700000    39.55600000    35.20300000
   H     73.57300000    41.18200000    34.62400000
   H     75.24000000    41.08000000    33.14000000
  Ca     63.13000000    45.42000000    27.82000000
   O     63.90000000    45.84000000    25.32000000
   H     63.45000000    46.54000000    24.86000000
   H     64.32000000    45.33000000    24.62000000
   O     60.45000000    45.44000000    27.68000000
   H     59.91000000    46.18000000    27.43000000
   H     59.97000000    44.67000000    27.38000000
   O     65.27000000    43.98000000    27.27000000
   H     66.21000000    44.11000000    27.31000000
   H     65.15000000    43.04000000    27.41000000
   O     62.21000000    43.72000000    25.99000000
   H     61.47000000    43.15000000    25.80000000
   H     62.86000000    43.49000000    25.32000000

Ca 1.00



