%chk=loop2.apoCaM-CA-Ng.Init295.run25.water4.chk
%nprocshared=20
%mem=10GB
%nosave
#b3lyp/svp scf=(tight,noincore,xqc) Test 
#IOP(5/87=12) Density=Current Pop=(MK,readradii) iop(6/33=2) iop(6/42=6)

loop2.apoCaM-CA-Ng.Init295.run25.water4 

   -2  1 
   C     75.49000000    53.82000000    36.80000000
   C     75.18000000    54.62000000    35.54000000
   O     74.17000000    55.31000000    35.46000000
   H     76.31600000    54.29000000    37.33400000
   H     74.61000000    53.79700000    37.44200000
   H     75.76700000    52.80200000    36.52600000
   N     76.03000000    54.57000000    34.51000000
   C     75.98000000    55.53000000    33.43000000
   C     76.05000000    56.99000000    33.87000000
   O     76.93000000    57.32000000    34.67000000
   C     77.12000000    55.32000000    32.44000000
   C     77.05000000    56.10000000    31.13000000
   O     75.95000000    56.60000000    30.80000000
   O     78.11000000    56.21000000    30.47000000
   H     76.91000000    54.07000000    34.58000000
   H     75.10000000    55.36000000    32.81000000
   H     77.01000000    54.33000000    32.01000000
   H     78.11000000    55.47000000    32.88000000
   N     75.20000000    57.91000000    33.42000000
   C     75.08000000    59.33000000    33.70000000
   C     74.87000000    59.59000000    35.19000000
   O     74.36000000    58.77000000    35.95000000
   C     73.87000000    59.82000000    32.92000000
   H     74.52000000    57.57000000    32.75000000
   H     75.98000000    59.89000000    33.46000000
   H     72.96000000    59.53000000    33.43000000
   H     73.85000000    60.91000000    32.93000000
   H     73.90000000    59.37000000    31.93000000
   N     75.32000000    60.71000000    35.75000000
   C     75.90000000    61.88000000    35.13000000
   C     77.42000000    61.86000000    35.12000000
   O     78.06000000    61.10000000    35.83000000
   C     75.31000000    63.15000000    35.74000000
   C     73.79000000    63.20000000    35.75000000
   O     73.18000000    63.40000000    34.67000000
   O     73.17000000    62.96000000    36.80000000
   H     75.15000000    60.74000000    36.75000000
   H     75.59000000    61.94000000    34.09000000
   H     75.74000000    64.04000000    35.29000000
   H     75.69000000    63.27000000    36.76000000
   N     78.03000000    62.75000000    34.32000000
   C     79.48000000    62.80000000    34.25000000
   C     80.01000000    61.57000000    33.54000000
   O     79.36000000    61.00000000    32.66000000
   H     77.46000000    63.24000000    33.65000000
   H     79.92000000    62.92000000    35.24000000
   H     79.82000000    63.70000000    33.73000000
   N     81.21000000    61.07000000    33.83000000
   C     82.04000000    61.81000000    34.76000000
   C     82.06000000    61.35000000    36.21000000
   O     82.66000000    62.07000000    37.01000000
   C     83.47000000    61.68000000    34.23000000
   C     83.72000000    62.35000000    32.89000000
   N     84.26000000    61.57000000    31.94000000
   O     83.43000000    63.52000000    32.67000000
   H     81.50000000    60.22000000    33.37000000
   H     81.82000000    62.87000000    34.68000000
   H     83.70000000    60.62000000    34.22000000
   H     84.17000000    62.08000000    34.95000000
   H     84.67000000    60.73000000    32.32000000
   H     84.60000000    61.86000000    31.04000000
   N     81.50000000    60.19000000    36.57000000
   C     81.32000000    59.80000000    37.95000000
   C     80.58000000    60.78000000    38.84000000
   O     80.77000000    60.70000000    40.06000000
   H     81.03000000    59.58000000    35.92000000
   H     82.33000000    59.62000000    38.34000000
   H     80.83000000    58.82000000    37.98000000
   N     79.69000000    61.59000000    38.28000000
   C     79.00000000    62.68000000    38.95000000
   C     77.69000000    62.09000000    39.45000000
   O     76.63000000    62.25000000    38.86000000
   C     78.83000000    63.93000000    38.10000000
   C     78.19000000    65.13000000    38.80000000
   O     80.04000000    64.45000000    37.61000000
   H     79.51000000    61.48000000    37.29000000
   H     79.47000000    62.96000000    39.90000000
   H     78.20000000    63.65000000    37.25000000
   H     80.02000000    65.41000000    37.66000000
   H     78.85000000    65.81000000    39.33000000
   H     77.75000000    65.63000000    37.93000000
   H     77.44000000    64.86000000    39.54000000
   N     77.72000000    61.28000000    40.52000000
   C     76.55000000    60.69000000    41.12000000
   C     75.82000000    61.47000000    42.21000000
   O     76.30000000    62.49000000    42.70000000
   C     76.90000000    59.32000000    41.69000000
   C     77.59000000    58.43000000    40.66000000
   C     77.88000000    59.46000000    42.86000000
   C     77.02000000    58.43000000    39.24000000
   H     78.65000000    61.22000000    40.91000000
   H     75.82000000    60.48000000    40.34000000
   H     75.96000000    58.88000000    42.04000000
   H     77.35000000    57.42000000    41.00000000
   H     78.62000000    58.78000000    40.61000000
   H     78.19000000    58.47000000    43.17000000
   H     78.81000000    59.96000000    42.60000000
   H     77.41000000    59.99000000    43.69000000
   H     77.50000000    57.69000000    38.60000000
   H     75.93000000    58.41000000    39.21000000
   H     77.25000000    59.39000000    38.79000000
   N     74.65000000    61.01000000    42.65000000
   C     73.77000000    61.63000000    43.62000000
   C     72.94000000    60.58000000    44.35000000
   O     72.34000000    59.69000000    43.75000000
   C     72.86000000    62.72000000    43.05000000
   C     72.24000000    62.37000000    41.71000000
   O     72.86000000    62.69000000    40.67000000
   O     71.29000000    61.56000000    41.60000000
   H     74.26000000    60.20000000    42.20000000
   H     74.34000000    62.13000000    44.40000000
   H     73.38000000    63.68000000    42.98000000
   H     72.03000000    62.76000000    43.75000000
   N     72.76000000    60.68000000    45.67000000
   C     71.73000000    59.90000000    46.34000000
   C     72.04000000    58.41000000    46.34000000
   O     73.20000000    58.05000000    46.57000000
   C     71.64000000    60.48000000    47.75000000
   C     70.46000000    59.94000000    48.51000000
   C     70.62000000    58.86000000    49.39000000
   C     69.17000000    60.45000000    48.32000000
   C     69.52000000    58.22000000    49.98000000
   C     68.07000000    59.82000000    48.91000000
   C     68.23000000    58.71000000    49.74000000
   H     73.10000000    61.48000000    46.17000000
   H     70.81000000    60.22000000    45.84000000
   H     71.54000000    61.56000000    47.71000000
   H     72.52000000    60.11000000    48.26000000
   H     71.60000000    58.44000000    49.57000000
   H     68.97000000    61.31000000    47.69000000
   H     69.66000000    57.26000000    50.46000000
   H     67.09000000    60.20000000    48.68000000
   H     67.34000000    58.31000000    50.21000000
   N     71.11000000    57.47000000    46.14000000
   C     71.40000000    56.05000000    46.18000000
   C     72.34000000    55.59000000    45.07000000
   O     72.80000000    54.46000000    45.22000000
   C     70.03000000    55.40000000    46.05000000
   C     69.18000000    56.38000000    45.24000000
   C     69.73000000    57.69000000    45.79000000
   H     71.85000000    55.78000000    47.13000000
   H     70.05000000    54.38000000    45.66000000
   H     69.63000000    55.27000000    47.06000000
   H     69.44000000    56.26000000    44.19000000
   H     68.12000000    56.28000000    45.48000000
   H     69.68000000    58.50000000    45.06000000
   H     69.08000000    58.06000000    46.59000000
   N     72.64000000    56.39000000    44.04000000
   C     73.56000000    56.04000000    42.97000000
   C     74.94000000    55.55000000    43.42000000
   O     75.51000000    54.65000000    42.82000000
   C     73.64000000    57.20000000    41.98000000
   C     72.41000000    57.49000000    41.14000000
   C     72.67000000    58.71000000    40.26000000
   O     71.88000000    59.10000000    39.38000000
   O     73.73000000    59.36000000    40.43000000
   H     72.18000000    57.28000000    43.98000000
   H     73.11000000    55.23000000    42.41000000
   H     74.45000000    57.02000000    41.27000000
   H     73.98000000    58.07000000    42.54000000
   H     71.67000000    57.73000000    41.90000000
   H     72.06000000    56.63000000    40.57000000
   N     75.52000000    56.21000000    44.43000000
   C     76.89000000    55.95000000    44.83000000
   H     77.50200000    56.82700000    44.61800000
   H     76.92300000    55.73400000    45.89800000
   H     77.27500000    55.09500000    44.27400000
   H     75.07000000    56.99000000    44.88000000
  Ca     71.84000000    61.73000000    38.58000000
   O     69.54000000    60.52000000    39.26000000
   H     69.95000000    60.23000000    40.08000000
   H     68.99000000    59.78000000    38.99000000
   O     74.31000000    60.97000000    38.53000000
   H     74.34000000    60.35000000    39.26000000
   H     75.20000000    61.29000000    38.45000000
   O     69.82000000    62.06000000    36.31000000
   H     70.47000000    61.76000000    35.67000000
   H     69.06000000    61.50000000    36.16000000
   O     71.82000000    60.09000000    36.41000000
   H     71.33000000    59.50000000    35.85000000
   H     72.62000000    59.62000000    36.62000000

Ca 1.00



