%chk=loop2.holoCaM.run93.water1.chk
%nprocshared=20
%mem=10GB
%nosave
#b3lyp/svp scf=(tight,noincore,xqc) Test 
#IOP(5/87=12) Density=Current Pop=(MK,readradii) iop(6/33=2) iop(6/42=6)

loop2.holoCaM.run93.water1 

   -2  1 
   C     30.56000000    62.56000000    30.01000000
   C     30.05000000    61.67000000    31.14000000
   O     30.57000000    60.56000000    31.22000000
   H     31.57600000    62.26500000    29.74600000
   H     29.91300000    62.45000000    29.14000000
   H     30.55800000    63.60000000    30.33700000
   N     29.18000000    62.13000000    32.04000000
   C     28.57000000    61.50000000    33.20000000
   C     27.69000000    60.31000000    32.86000000
   O     26.79000000    60.42000000    32.03000000
   C     27.75000000    62.52000000    33.98000000
   C     26.81000000    61.89000000    35.00000000
   O     27.13000000    60.79000000    35.52000000
   O     25.95000000    62.63000000    35.53000000
   H     28.89000000    63.08000000    31.89000000
   H     29.40000000    61.22000000    33.85000000
   H     27.15000000    63.08000000    33.26000000
   H     28.28000000    63.24000000    34.59000000
   N     28.03000000    59.16000000    33.45000000
   C     27.63000000    57.85000000    32.98000000
   C     26.52000000    57.20000000    33.80000000
   O     25.62000000    56.52000000    33.31000000
   C     28.89000000    57.02000000    32.78000000
   H     28.72000000    59.22000000    34.18000000
   H     27.29000000    58.04000000    31.96000000
   H     29.29000000    56.83000000    33.78000000
   H     28.65000000    56.10000000    32.25000000
   H     29.61000000    57.64000000    32.24000000
   N     26.50000000    57.47000000    35.10000000
   C     25.71000000    56.78000000    36.10000000
   C     24.57000000    57.70000000    36.54000000
   O     23.62000000    57.27000000    37.18000000
   C     26.45000000    56.21000000    37.30000000
   C     27.16000000    57.28000000    38.11000000
   O     27.45000000    56.99000000    39.29000000
   O     27.52000000    58.32000000    37.53000000
   H     27.23000000    58.08000000    35.46000000
   H     25.20000000    55.95000000    35.62000000
   H     27.19000000    55.51000000    36.90000000
   H     25.77000000    55.62000000    37.91000000
   N     24.57000000    58.93000000    36.01000000
   C     23.46000000    59.82000000    35.75000000
   C     23.07000000    60.61000000    36.99000000
   O     21.99000000    61.20000000    37.03000000
   H     25.41000000    59.26000000    35.57000000
   H     22.64000000    59.30000000    35.27000000
   H     23.78000000    60.56000000    35.01000000
   N     23.95000000    60.59000000    37.99000000
   C     23.86000000    61.29000000    39.26000000
   C     24.10000000    62.79000000    39.22000000
   O     23.83000000    63.36000000    40.27000000
   C     24.74000000    60.49000000    40.21000000
   C     26.24000000    60.68000000    40.03000000
   N     26.94000000    60.42000000    41.14000000
   O     26.80000000    61.03000000    39.00000000
   H     24.88000000    60.26000000    37.76000000
   H     22.82000000    61.22000000    39.58000000
   H     24.56000000    59.43000000    40.03000000
   H     24.46000000    60.75000000    41.23000000
   H     26.51000000    60.04000000    41.97000000
   H     27.90000000    60.20000000    40.90000000
   N     24.66000000    63.40000000    38.17000000
   C     24.97000000    64.82000000    38.20000000
   C     26.38000000    65.29000000    38.50000000
   O     26.67000000    66.46000000    38.29000000
   H     25.03000000    62.84000000    37.42000000
   H     24.28000000    65.28000000    38.92000000
   H     24.78000000    65.20000000    37.20000000
   N     27.26000000    64.36000000    38.90000000
   C     28.58000000    64.73000000    39.33000000
   C     29.55000000    64.01000000    38.41000000
   O     29.24000000    63.21000000    37.53000000
   C     28.73000000    64.49000000    40.83000000
   C     27.94000000    65.48000000    41.68000000
   O     28.46000000    63.17000000    41.26000000
   H     27.14000000    63.36000000    38.75000000
   H     28.66000000    65.82000000    39.23000000
   H     29.78000000    64.70000000    41.05000000
   H     27.76000000    63.20000000    41.92000000
   H     28.34000000    65.46000000    42.69000000
   H     28.03000000    66.51000000    41.34000000
   H     26.88000000    65.20000000    41.61000000
   N     30.83000000    64.34000000    38.60000000
   C     31.96000000    63.80000000    37.87000000
   C     32.64000000    62.74000000    38.72000000
   O     32.83000000    62.96000000    39.92000000
   C     32.88000000    64.91000000    37.37000000
   C     32.34000000    65.81000000    36.25000000
   C     34.26000000    64.44000000    36.93000000
   C     32.22000000    65.08000000    34.91000000
   H     31.04000000    65.02000000    39.32000000
   H     31.65000000    63.18000000    37.02000000
   H     33.10000000    65.64000000    38.15000000
   H     32.92000000    66.67000000    35.94000000
   H     31.34000000    66.15000000    36.53000000
   H     34.89000000    65.16000000    36.40000000
   H     34.77000000    64.07000000    37.82000000
   H     34.15000000    63.62000000    36.22000000
   H     33.17000000    64.75000000    34.51000000
   H     31.60000000    64.19000000    34.91000000
   H     31.82000000    65.77000000    34.17000000
   N     32.94000000    61.55000000    38.18000000
   C     33.70000000    60.47000000    38.78000000
   C     35.03000000    60.30000000    38.06000000
   O     35.18000000    60.71000000    36.91000000
   C     32.96000000    59.13000000    38.70000000
   C     31.59000000    59.04000000    39.35000000
   O     30.56000000    58.79000000    38.70000000
   O     31.47000000    59.29000000    40.57000000
   H     32.58000000    61.41000000    37.25000000
   H     33.88000000    60.55000000    39.85000000
   H     33.60000000    58.41000000    39.21000000
   H     32.83000000    58.90000000    37.64000000
   N     35.99000000    59.67000000    38.74000000
   C     37.25000000    59.44000000    38.07000000
   C     37.27000000    58.94000000    36.63000000
   O     37.89000000    59.65000000    35.84000000
   C     38.21000000    58.65000000    38.95000000
   C     39.46000000    58.38000000    38.15000000
   C     40.45000000    59.36000000    38.11000000
   C     39.67000000    57.19000000    37.44000000
   C     41.58000000    59.19000000    37.30000000
   C     40.80000000    56.98000000    36.64000000
   C     41.72000000    58.03000000    36.52000000
   H     35.81000000    59.14000000    39.58000000
   H     37.77000000    60.39000000    37.98000000
   H     37.75000000    57.70000000    39.24000000
   H     38.49000000    59.21000000    39.84000000
   H     40.34000000    60.25000000    38.72000000
   H     39.02000000    56.34000000    37.55000000
   H     42.33000000    59.96000000    37.30000000
   H     40.88000000    56.14000000    35.97000000
   H     42.58000000    57.90000000    35.89000000
   N     36.52000000    57.89000000    36.26000000
   C     36.34000000    57.49000000    34.88000000
   C     35.80000000    58.57000000    33.96000000
   O     35.80000000    58.41000000    32.74000000
   C     35.47000000    56.24000000    34.92000000
   C     35.35000000    55.83000000    36.39000000
   C     35.72000000    57.09000000    37.16000000
   H     37.32000000    57.27000000    34.46000000
   H     34.49000000    56.51000000    34.53000000
   H     35.88000000    55.37000000    34.42000000
   H     34.32000000    55.51000000    36.57000000
   H     35.97000000    54.97000000    36.64000000
   H     34.80000000    57.63000000    37.38000000
   H     36.32000000    56.76000000    38.01000000
   N     35.22000000    59.65000000    34.49000000
   C     34.67000000    60.70000000    33.65000000
   C     35.51000000    61.96000000    33.53000000
   O     35.54000000    62.53000000    32.44000000
   C     33.26000000    61.09000000    34.10000000
   C     32.31000000    59.92000000    34.37000000
   C     31.13000000    60.20000000    35.29000000
   O     30.92000000    61.31000000    35.83000000
   O     30.27000000    59.32000000    35.52000000
   H     35.10000000    59.62000000    35.49000000
   H     34.61000000    60.38000000    32.61000000
   H     32.81000000    61.75000000    33.37000000
   H     33.40000000    61.59000000    35.06000000
   H     32.86000000    59.02000000    34.63000000
   H     31.86000000    59.65000000    33.42000000
   N     36.26000000    62.26000000    34.60000000
   C     37.31000000    63.24000000    34.45000000
   H     38.19100000    62.76500000    34.01800000
   H     36.97000000    64.04000000    33.79200000
   H     37.56300000    63.65400000    35.42600000
   H     36.26000000    61.61000000    35.37000000
  Ca     28.94000000    60.52000000    37.41000000
   O     29.51000000    61.03000000    40.05000000
   H     30.18000000    60.40000000    40.33000000
   H     29.55000000    61.73000000    40.70000000

Ca 1.00



