%chk=loop3.holoCaM.run24.water2.chk
%nprocshared=20
%mem=10GB
%nosave
#b3lyp/svp scf=(tight,noincore,xqc) Test 
#IOP(5/87=12) Density=Current Pop=(MK,readradii) iop(6/33=2) iop(6/42=6)

loop3.holoCaM.run24.water2 

   0  1 
   C     77.80000000    32.66000000    21.46000000
   C     79.31000000    32.85000000    21.52000000
   O     80.13000000    32.00000000    21.18000000
   H     77.33000000    33.58900000    21.13800000
   H     77.56100000    31.86800000    20.75100000
   H     77.42800000    32.38900000    22.44800000
   N     79.73000000    34.07000000    21.88000000
   C     81.09000000    34.57000000    21.98000000
   C     81.41000000    34.94000000    23.42000000
   O     80.74000000    35.83000000    23.94000000
   C     81.16000000    35.67000000    20.93000000
   C     82.45000000    36.45000000    20.76000000
   O     83.35000000    36.21000000    21.59000000
   O     82.48000000    37.45000000    20.01000000
   H     79.02000000    34.76000000    22.06000000
   H     81.77000000    33.82000000    21.57000000
   H     80.38000000    36.43000000    21.02000000
   H     80.83000000    35.26000000    19.97000000
   N     82.30000000    34.27000000    24.15000000
   C     82.56000000    34.27000000    25.58000000
   C     83.27000000    35.48000000    26.18000000
   O     83.12000000    35.81000000    27.35000000
   C     83.35000000    33.01000000    25.91000000
   C     83.66000000    32.83000000    27.40000000
   C     84.01000000    31.42000000    27.85000000
   C     84.19000000    31.34000000    29.36000000
   N     85.21000000    32.25000000    29.92000000
   H     82.78000000    33.57000000    23.61000000
   H     81.62000000    34.10000000    26.10000000
   H     84.31000000    33.11000000    25.41000000
   H     82.85000000    32.17000000    25.42000000
   H     82.77000000    33.08000000    27.97000000
   H     84.48000000    33.51000000    27.63000000
   H     84.95000000    31.20000000    27.35000000
   H     83.20000000    30.81000000    27.44000000
   H     84.28000000    30.29000000    29.64000000
   H     83.24000000    31.64000000    29.81000000
   H     84.98000000    33.23000000    29.89000000
   H     85.15000000    32.17000000    30.93000000
   H     86.14000000    32.01000000    29.62000000
   N     83.92000000    36.20000000    25.25000000
   C     84.46000000    37.52000000    25.50000000
   C     83.91000000    38.62000000    24.60000000
   O     84.37000000    39.74000000    24.80000000
   C     85.98000000    37.42000000    25.49000000
   C     86.69000000    36.87000000    24.26000000
   O     85.98000000    36.63000000    23.26000000
   O     87.87000000    36.48000000    24.40000000
   H     84.08000000    35.83000000    24.33000000
   H     84.05000000    37.74000000    26.48000000
   H     86.22000000    36.74000000    26.31000000
   H     86.47000000    38.36000000    25.74000000
   N     83.15000000    38.19000000    23.59000000
   C     82.43000000    39.09000000    22.71000000
   C     83.37000000    39.91000000    21.83000000
   O     83.11000000    41.08000000    21.56000000
   H     83.06000000    37.20000000    23.42000000
   H     81.87000000    39.71000000    23.41000000
   H     81.76000000    38.56000000    22.03000000
   N     84.46000000    39.33000000    21.32000000
   C     85.50000000    40.04000000    20.61000000
   C     85.15000000    40.24000000    19.14000000
   O     85.78000000    40.99000000    18.39000000
   C     86.85000000    39.36000000    20.77000000
   C     86.93000000    37.87000000    20.48000000
   N     88.15000000    37.34000000    20.56000000
   O     86.05000000    37.14000000    20.03000000
   H     84.65000000    38.37000000    21.56000000
   H     85.55000000    41.02000000    21.10000000
   H     87.19000000    39.43000000    21.80000000
   H     87.68000000    39.82000000    20.22000000
   H     88.89000000    37.96000000    20.86000000
   H     88.34000000    36.41000000    20.23000000
   N     84.08000000    39.58000000    18.71000000
   C     83.65000000    39.46000000    17.33000000
   C     83.86000000    38.12000000    16.63000000
   O     83.55000000    37.95000000    15.45000000
   H     83.66000000    38.91000000    19.35000000
   H     84.07000000    40.21000000    16.66000000
   H     82.57000000    39.58000000    17.36000000
   N     84.35000000    37.09000000    17.32000000
   C     84.87000000    35.86000000    16.77000000
   C     84.51000000    34.67000000    17.66000000
   O     84.55000000    34.74000000    18.88000000
   C     86.37000000    36.04000000    16.64000000
   C     87.01000000    37.18000000    15.88000000
   C     87.77000000    38.12000000    16.58000000
   C     86.94000000    37.22000000    14.48000000
   C     88.63000000    39.00000000    15.91000000
   C     87.63000000    38.23000000    13.79000000
   C     88.47000000    39.09000000    14.51000000
   O     89.25000000    39.98000000    13.84000000
   H     84.57000000    37.28000000    18.29000000
   H     84.53000000    35.61000000    15.76000000
   H     86.70000000    35.16000000    16.07000000
   H     86.79000000    35.84000000    17.63000000
   H     87.88000000    38.08000000    17.65000000
   H     86.50000000    36.49000000    13.82000000
   H     89.21000000    39.73000000    16.46000000
   H     87.61000000    38.31000000    12.71000000
   H     89.14000000    39.85000000    12.89000000
   N     84.17000000    33.50000000    17.10000000
   C     83.90000000    32.28000000    17.83000000
   C     85.05000000    31.36000000    17.42000000
   O     85.22000000    31.09000000    16.24000000
   C     82.51000000    31.74000000    17.49000000
   C     81.55000000    32.73000000    18.14000000
   C     82.29000000    30.29000000    17.90000000
   C     80.05000000    32.65000000    17.83000000
   H     84.18000000    33.52000000    16.09000000
   H     83.98000000    32.43000000    18.90000000
   H     82.35000000    31.86000000    16.42000000
   H     81.85000000    33.76000000    17.97000000
   H     81.73000000    32.73000000    19.21000000
   H     81.32000000    29.90000000    17.59000000
   H     83.06000000    29.69000000    17.43000000
   H     82.39000000    30.14000000    18.98000000
   H     79.84000000    32.84000000    16.78000000
   H     79.59000000    31.72000000    18.14000000
   H     79.53000000    33.45000000    18.37000000
   N     85.73000000    30.78000000    18.42000000
   C     86.65000000    29.67000000    18.32000000
   C     86.09000000    28.36000000    18.87000000
   O     85.04000000    28.30000000    19.52000000
   C     87.95000000    30.06000000    19.01000000
   O     87.75000000    30.41000000    20.36000000
   H     85.45000000    31.11000000    19.33000000
   H     86.82000000    29.41000000    17.28000000
   H     88.46000000    30.82000000    18.42000000
   H     88.59000000    29.18000000    18.99000000
   H     87.13000000    31.15000000    20.40000000
   N     86.77000000    27.25000000    18.60000000
   C     86.35000000    25.91000000    18.97000000
   C     86.10000000    25.71000000    20.46000000
   O     85.13000000    25.05000000    20.83000000
   C     87.50000000    24.96000000    18.65000000
   H     87.59000000    27.26000000    18.02000000
   H     85.43000000    25.68000000    18.45000000
   H     87.76000000    24.89000000    17.60000000
   H     88.34000000    25.21000000    19.30000000
   H     87.14000000    24.00000000    19.03000000
   N     86.82000000    26.36000000    21.38000000
   C     86.55000000    26.51000000    22.79000000
   C     85.29000000    27.28000000    23.15000000
   O     84.82000000    27.19000000    24.28000000
   C     87.80000000    27.00000000    23.51000000
   H     87.62000000    26.88000000    21.05000000
   H     86.39000000    25.50000000    23.18000000
   H     88.13000000    28.01000000    23.24000000
   H     87.56000000    27.15000000    24.57000000
   H     88.61000000    26.30000000    23.35000000
   N     84.66000000    27.93000000    22.17000000
   C     83.37000000    28.59000000    22.23000000
   C     82.26000000    27.96000000    21.40000000
   O     81.17000000    27.88000000    21.96000000
   C     83.50000000    29.99000000    21.64000000
   C     84.43000000    30.80000000    22.53000000
   C     84.63000000    32.18000000    21.90000000
   O     84.20000000    33.22000000    22.43000000
   O     85.36000000    32.31000000    20.90000000
   H     85.20000000    28.13000000    21.34000000
   H     83.11000000    28.63000000    23.28000000
   H     82.57000000    30.53000000    21.49000000
   H     83.87000000    29.91000000    20.61000000
   H     85.39000000    30.30000000    22.67000000
   H     83.97000000    30.91000000    23.51000000
   N     82.53000000    27.38000000    20.23000000
   C     81.60000000    26.71000000    19.33000000
   H     80.71600000    27.33300000    19.19300000
   H     82.08100000    26.54500000    18.36600000
   H     81.30600000    25.75200000    19.75800000
   H     83.47000000    27.46000000    19.87000000
  Ca     85.60000000    34.91000000    21.31000000
   O     87.81000000    34.33000000    22.81000000
   H     87.95000000    35.14000000    23.29000000
   H     88.03000000    33.64000000    23.43000000
   O     87.79000000    34.35000000    19.82000000
   H     88.59000000    34.13000000    20.30000000
   H     87.99000000    34.15000000    18.91000000

Ca 1.00



