%chk=loop4.apoCaM-CA-Ng.Init293.run56.water3.chk
%nprocshared=20
%mem=10GB
%nosave
#b3lyp/svp scf=(tight,noincore,xqc) Test 
#IOP(5/87=12) Density=Current Pop=(MK,readradii) iop(6/33=2) iop(6/42=6)

loop4.apoCaM-CA-Ng.Init293.run56.water3 

   -3  1 
   C     44.56000000    61.95000000    72.51000000
   C     43.19000000    61.44000000    72.06000000
   O     42.23000000    61.55000000    72.82000000
   H     45.25900000    61.89800000    71.67500000
   H     44.47200000    62.98300000    72.84500000
   H     44.92700000    61.33200000    73.32900000
   N     43.03000000    60.99000000    70.82000000
   C     41.89000000    60.51000000    70.07000000
   C     40.54000000    61.20000000    70.22000000
   O     39.62000000    60.82000000    69.50000000
   C     41.62000000    59.02000000    70.23000000
   C     41.49000000    58.48000000    71.64000000
   O     40.79000000    59.09000000    72.48000000
   O     41.97000000    57.35000000    71.89000000
   H     43.85000000    61.11000000    70.23000000
   H     42.20000000    60.64000000    69.03000000
   H     42.54000000    58.56000000    69.87000000
   H     40.95000000    58.58000000    69.48000000
   N     40.40000000    62.27000000    71.00000000
   C     39.17000000    62.97000000    71.33000000
   C     38.25000000    62.30000000    72.33000000
   O     38.63000000    61.91000000    73.44000000
   C     39.51000000    64.39000000    71.78000000
   C     39.79000000    65.27000000    70.57000000
   C     40.55000000    64.44000000    72.90000000
   C     39.79000000    66.74000000    70.98000000
   H     41.13000000    62.56000000    71.64000000
   H     38.65000000    63.03000000    70.37000000
   H     38.56000000    64.78000000    72.14000000
   H     38.99000000    65.16000000    69.84000000
   H     40.73000000    64.97000000    70.10000000
   H     41.55000000    64.23000000    72.52000000
   H     40.57000000    65.43000000    73.35000000
   H     40.37000000    63.68000000    73.67000000
   H     40.55000000    66.92000000    71.75000000
   H     40.04000000    67.35000000    70.12000000
   H     38.81000000    67.02000000    71.35000000
   N     37.05000000    61.92000000    71.87000000
   C     36.13000000    61.04000000    72.55000000
   C     36.58000000    59.59000000    72.63000000
   O     37.20000000    59.08000000    71.69000000
   C     34.84000000    61.12000000    71.74000000
   C     34.96000000    61.21000000    70.23000000
   O     35.29000000    62.31000000    69.73000000
   O     35.00000000    60.19000000    69.51000000
   H     36.82000000    62.13000000    70.91000000
   H     36.01000000    61.39000000    73.58000000
   H     34.28000000    61.98000000    72.12000000
   H     34.21000000    60.27000000    72.00000000
   N     36.40000000    58.85000000    73.73000000
   C     35.82000000    59.21000000    75.00000000
   C     36.72000000    60.11000000    75.84000000
   O     37.88000000    60.42000000    75.56000000
   H     36.79000000    57.93000000    73.63000000
   H     35.57000000    58.36000000    75.63000000
   H     34.84000000    59.68000000    74.84000000
   N     36.19000000    60.63000000    76.94000000
   C     34.97000000    60.24000000    77.61000000
   C     33.74000000    60.69000000    76.83000000
   O     32.80000000    59.90000000    76.71000000
   C     34.90000000    60.47000000    79.11000000
   C     33.56000000    60.07000000    79.73000000
   O     33.30000000    58.85000000    79.82000000
   O     32.86000000    60.99000000    80.18000000
   H     36.74000000    61.32000000    77.43000000
   H     34.97000000    59.16000000    77.45000000
   H     35.04000000    61.53000000    79.34000000
   H     35.66000000    59.92000000    79.67000000
   N     33.63000000    61.90000000    76.28000000
   C     34.58000000    62.98000000    76.12000000
   C     33.89000000    64.28000000    75.74000000
   O     32.93000000    64.25000000    74.97000000
   H     32.71000000    62.11000000    75.91000000
   H     35.31000000    62.79000000    75.32000000
   H     35.16000000    63.15000000    77.02000000
   N     34.42000000    65.39000000    76.25000000
   C     33.86000000    66.71000000    76.04000000
   C     34.83000000    67.89000000    76.05000000
   O     34.45000000    69.01000000    76.37000000
   C     32.74000000    66.99000000    77.04000000
   C     33.13000000    67.03000000    78.51000000
   C     34.11000000    68.03000000    79.10000000
   N     35.36000000    67.61000000    79.32000000
   O     33.81000000    69.20000000    79.32000000
   H     35.21000000    65.35000000    76.88000000
   H     33.46000000    66.86000000    75.04000000
   H     31.91000000    66.29000000    77.05000000
   H     32.27000000    67.97000000    76.96000000
   H     33.53000000    66.03000000    78.69000000
   H     32.25000000    67.07000000    79.15000000
   H     35.62000000    66.64000000    79.27000000
   H     36.07000000    68.29000000    79.58000000
   N     36.13000000    67.64000000    75.84000000
   C     37.20000000    68.58000000    76.10000000
   C     38.37000000    67.96000000    76.85000000
   O     38.68000000    66.79000000    76.60000000
   C     37.67000000    69.35000000    74.87000000
   C     36.55000000    70.09000000    74.15000000
   C     38.42000000    68.52000000    73.83000000
   H     36.44000000    66.77000000    75.45000000
   H     36.76000000    69.37000000    76.71000000
   H     38.29000000    70.19000000    75.18000000
   H     35.89000000    70.60000000    74.85000000
   H     36.79000000    70.82000000    73.38000000
   H     35.91000000    69.31000000    73.75000000
   H     38.59000000    69.16000000    72.97000000
   H     39.37000000    68.20000000    74.26000000
   H     37.87000000    67.64000000    73.49000000
   N     38.95000000    68.62000000    77.86000000
   C     40.19000000    68.29000000    78.54000000
   C     40.06000000    67.23000000    79.62000000
   O     41.04000000    66.53000000    79.84000000
   C     40.78000000    69.55000000    79.16000000
   C     42.18000000    69.32000000    79.72000000
   N     42.27000000    69.29000000    81.05000000
   O     43.19000000    69.27000000    79.02000000
   H     38.59000000    69.54000000    78.04000000
   H     40.86000000    67.93000000    77.76000000
   H     40.17000000    69.91000000    79.99000000
   H     40.85000000    70.36000000    78.44000000
   H     41.46000000    69.14000000    81.63000000
   H     43.12000000    69.36000000    81.59000000
   N     38.92000000    66.99000000    80.27000000
   C     38.75000000    66.00000000    81.32000000
   C     39.13000000    64.59000000    80.89000000
   O     38.61000000    64.03000000    79.92000000
   C     37.30000000    66.01000000    81.78000000
   C     36.85000000    64.88000000    82.68000000
   C     37.35000000    64.93000000    83.99000000
   C     36.04000000    63.81000000    82.29000000
   C     37.10000000    63.86000000    84.86000000
   C     35.94000000    62.69000000    83.12000000
   C     36.35000000    62.73000000    84.47000000
   O     36.16000000    61.71000000    85.36000000
   H     38.17000000    67.64000000    80.09000000
   H     39.45000000    66.25000000    82.12000000
   H     36.64000000    65.94000000    80.92000000
   H     37.05000000    66.95000000    82.26000000
   H     37.94000000    65.81000000    84.21000000
   H     35.64000000    63.84000000    81.29000000
   H     37.52000000    63.94000000    85.85000000
   H     35.45000000    61.81000000    82.73000000
   H     36.35000000    62.02000000    86.25000000
   N     40.13000000    64.00000000    81.55000000
   C     40.66000000    62.67000000    81.33000000
   C     41.57000000    62.51000000    80.12000000
   O     42.14000000    61.45000000    79.86000000
   C     39.72000000    61.50000000    81.55000000
   C     39.41000000    61.37000000    83.05000000
   C     40.48000000    60.77000000    83.95000000
   O     40.67000000    59.54000000    83.84000000
   O     41.06000000    61.48000000    84.80000000
   H     40.29000000    64.35000000    82.48000000
   H     41.48000000    62.57000000    82.05000000
   H     40.24000000    60.65000000    81.12000000
   H     38.77000000    61.70000000    81.05000000
   H     38.46000000    60.85000000    83.15000000
   H     39.31000000    62.39000000    83.42000000
   N     41.71000000    63.57000000    79.32000000
   C     42.86000000    63.76000000    78.46000000
   C     44.01000000    64.34000000    79.26000000
   O     45.15000000    64.07000000    78.89000000
   C     42.59000000    64.72000000    77.30000000
   C     41.22000000    64.54000000    76.66000000
   C     40.93000000    63.10000000    76.26000000
   O     39.75000000    62.70000000    76.32000000
   O     41.86000000    62.42000000    75.79000000
   H     41.20000000    64.44000000    79.36000000
   H     43.21000000    62.82000000    78.03000000
   H     43.37000000    64.61000000    76.55000000
   H     42.59000000    65.75000000    77.65000000
   H     41.19000000    65.11000000    75.73000000
   H     40.45000000    64.98000000    77.29000000
   N     43.73000000    65.09000000    80.33000000
   C     44.59000000    65.34000000    81.47000000
   H     45.47600000    65.88500000    81.14400000
   H     44.05100000    65.93300000    82.20900000
   H     44.89100000    64.39100000    81.91400000
   H     42.76000000    65.37000000    80.27000000
  Ca     40.47000000    60.53000000    74.69000000
   O     39.62000000    57.85000000    74.53000000
   H     40.03000000    58.01000000    73.68000000
   H     39.19000000    57.00000000    74.44000000
   O     41.51000000    60.09000000    77.15000000
   H     41.96000000    59.58000000    77.82000000
   H     41.80000000    60.99000000    77.30000000
   O     42.67000000    58.66000000    74.77000000
   H     42.74000000    58.72000000    73.81000000
   H     43.54000000    58.37000000    75.05000000

Ca 1.00



