%chk=loop4.holoCaM-CaMKII.run96.water2.chk
%nprocshared=20
%mem=10GB
%nosave
#b3lyp/svp scf=(tight,noincore,xqc) Test 
#IOP(5/87=12) Density=Current Pop=(MK,readradii) iop(6/33=2) iop(6/42=6)

loop4.holoCaM-CaMKII.run96.water2 

   -3  1 
   C     50.02000000    27.56000000     4.26500000
   C     49.64000000    28.33000000     5.51500000
   O     49.12000000    29.43000000     5.35500000
   H     51.04400000    27.19900000     4.35800000
   H     49.34700000    26.71200000     4.14100000
   H     49.94400000    28.21500000     3.39700000
   N     49.97000000    27.87000000     6.72500000
   C     49.89000000    28.53000000     8.01500000
   C     51.16000000    29.32000000     8.25500000
   O     52.24000000    28.75000000     8.08500000
   C     49.65000000    27.47000000     9.08500000
   C     49.44000000    28.01000000    10.49500000
   O     49.19000000    29.22000000    10.69500000
   O     49.56000000    27.18000000    11.42500000
   H     50.35000000    26.93000000     6.71500000
   H     48.98000000    29.14000000     8.05500000
   H     50.49000000    26.78000000     9.07500000
   H     48.78000000    26.86000000     8.82500000
   N     51.03000000    30.63000000     8.45500000
   C     52.20000000    31.43000000     8.75500000
   C     52.50000000    31.48000000    10.24500000
   O     53.65000000    31.37000000    10.68500000
   C     52.05000000    32.84000000     8.18500000
   C     51.64000000    32.75000000     6.71500000
   C     53.27000000    33.71000000     8.44500000
   C     51.38000000    34.12000000     6.09500000
   H     50.11000000    31.04000000     8.48500000
   H     53.09000000    30.98000000     8.29500000
   H     51.22000000    33.26000000     8.74500000
   H     50.67000000    32.25000000     6.65500000
   H     52.35000000    32.18000000     6.12500000
   H     53.39000000    33.96000000     9.50500000
   H     54.18000000    33.27000000     8.03500000
   H     53.21000000    34.69000000     7.97500000
   H     50.84000000    34.05000000     5.15500000
   H     50.97000000    34.83000000     6.82500000
   H     52.34000000    34.61000000     5.93500000
   N     51.49000000    31.61000000    11.11500000
   C     51.67000000    31.99000000    12.49500000
   C     51.45000000    30.89000000    13.53500000
   O     51.63000000    31.09000000    14.73500000
   C     50.83000000    33.21000000    12.83500000
   C     49.33000000    33.01000000    12.63500000
   O     48.61000000    33.67000000    13.41500000
   O     48.83000000    32.21000000    11.82500000
   H     50.57000000    31.66000000    10.70500000
   H     52.70000000    32.28000000    12.71500000
   H     51.12000000    34.03000000    12.16500000
   H     51.08000000    33.58000000    13.82500000
   N     50.95000000    29.72000000    13.12500000
   C     51.22000000    28.43000000    13.72500000
   C     50.10000000    27.93000000    14.61500000
   O     50.31000000    27.59000000    15.77500000
   H     50.69000000    29.68000000    12.14500000
   H     52.18000000    28.45000000    14.25500000
   H     51.46000000    27.70000000    12.95500000
   N     48.86000000    27.91000000    14.10500000
   C     47.65000000    27.68000000    14.85500000
   C     47.00000000    26.38000000    14.39500000
   O     45.96000000    26.04000000    14.93500000
   C     46.61000000    28.80000000    14.79500000
   C     46.59000000    29.50000000    13.44500000
   O     46.29000000    30.71000000    13.33500000
   O     46.71000000    28.78000000    12.42500000
   H     48.70000000    28.12000000    13.12500000
   H     47.89000000    27.46000000    15.89500000
   H     46.82000000    29.58000000    15.52500000
   H     45.63000000    28.49000000    15.13500000
   N     47.46000000    25.83000000    13.26500000
   C     46.87000000    24.72000000    12.54500000
   C     45.69000000    25.07000000    11.65500000
   O     45.01000000    24.14000000    11.20500000
   H     48.25000000    26.30000000    12.84500000
   H     46.52000000    24.01000000    13.29500000
   H     47.63000000    24.26000000    11.90500000
   N     45.39000000    26.32000000    11.31500000
   C     44.27000000    26.78000000    10.52500000
   C     44.65000000    27.84000000     9.50500000
   O     45.43000000    28.75000000     9.77500000
   C     43.22000000    27.32000000    11.50500000
   C     42.64000000    26.24000000    12.40500000
   C     41.74000000    25.28000000    11.64500000
   N     41.25000000    24.15000000    12.17500000
   O     41.28000000    25.52000000    10.53500000
   H     45.89000000    27.09000000    11.74500000
   H     43.89000000    25.97000000     9.90500000
   H     42.51000000    27.90000000    10.92500000
   H     43.79000000    27.97000000    12.17500000
   H     42.08000000    26.81000000    13.14500000
   H     43.34000000    25.60000000    12.93500000
   H     41.22000000    24.02000000    13.17500000
   H     40.65000000    23.55000000    11.63500000
   N     44.16000000    27.78000000     8.26500000
   C     44.58000000    28.70000000     7.22500000
   C     43.53000000    29.73000000     6.81500000
   O     42.48000000    29.34000000     6.30500000
   C     44.99000000    27.90000000     5.98500000
   C     45.45000000    28.74000000     4.80500000
   C     46.12000000    26.96000000     6.38500000
   H     43.60000000    26.96000000     8.05500000
   H     45.47000000    29.29000000     7.45500000
   H     44.12000000    27.37000000     5.59500000
   H     44.70000000    29.50000000     4.57500000
   H     46.45000000    29.12000000     5.00500000
   H     45.52000000    28.04000000     3.97500000
   H     45.93000000    26.32000000     7.24500000
   H     46.37000000    26.33000000     5.53500000
   H     47.01000000    27.54000000     6.62500000
   N     43.73000000    31.01000000     7.12500000
   C     42.81000000    32.09000000     6.82500000
   C     42.74000000    32.44000000     5.34500000
   O     43.51000000    31.99000000     4.50500000
   C     43.10000000    33.24000000     7.78500000
   C     42.20000000    34.45000000     7.58500000
   N     40.92000000    34.38000000     7.98500000
   O     42.60000000    35.46000000     7.02500000
   H     44.46000000    31.09000000     7.81500000
   H     41.79000000    31.80000000     7.07500000
   H     44.13000000    33.56000000     7.63500000
   H     42.98000000    32.90000000     8.81500000
   H     40.59000000    33.50000000     8.37500000
   H     40.40000000    35.24000000     8.04500000
   N     41.75000000    33.24000000     4.94500000
   C     41.61000000    33.65000000     3.56500000
   C     42.82000000    34.45000000     3.11500000
   O     43.23000000    34.27000000     1.97500000
   C     40.36000000    34.51000000     3.44500000
   C     40.30000000    35.22000000     2.12500000
   C     40.16000000    34.32000000     1.06500000
   C     40.29000000    36.60000000     1.88500000
   C     40.14000000    34.82000000    -0.24500000
   C     40.40000000    37.12000000     0.58500000
   C     40.32000000    36.20000000    -0.47500000
   O     40.39000000    36.62000000    -1.77500000
   H     40.96000000    33.41000000     5.54500000
   H     41.51000000    32.72000000     2.99500000
   H     40.31000000    35.21000000     4.27500000
   H     39.46000000    33.88000000     3.41500000
   H     40.01000000    33.26000000     1.21500000
   H     40.59000000    37.15000000     2.76500000
   H     40.21000000    34.10000000    -1.04500000
   H     40.65000000    38.14000000     0.36500000
   H     40.42000000    37.58000000    -1.75500000
   N     43.38000000    35.32000000     3.96500000
   C     44.53000000    36.08000000     3.50500000
   C     45.83000000    35.30000000     3.47500000
   O     46.77000000    35.50000000     2.70500000
   C     44.66000000    37.36000000     4.32500000
   C     44.93000000    38.64000000     3.55500000
   C     44.93000000    39.89000000     4.43500000
   O     45.93000000    40.09000000     5.14500000
   O     43.95000000    40.67000000     4.38500000
   H     42.97000000    35.43000000     4.88500000
   H     44.40000000    36.39000000     2.46500000
   H     45.43000000    37.15000000     5.06500000
   H     43.78000000    37.50000000     4.95500000
   H     44.21000000    38.80000000     2.74500000
   H     45.92000000    38.50000000     3.13500000
   N     45.89000000    34.32000000     4.38500000
   C     46.93000000    33.32000000     4.25500000
   C     46.88000000    32.53000000     2.95500000
   O     47.93000000    32.42000000     2.31500000
   C     46.92000000    32.32000000     5.41500000
   C     47.32000000    32.92000000     6.75500000
   C     47.32000000    31.98000000     7.95500000
   O     48.37000000    31.79000000     8.60500000
   O     46.28000000    31.39000000     8.33500000
   H     45.05000000    34.16000000     4.91500000
   H     47.95000000    33.72000000     4.29500000
   H     47.65000000    31.54000000     5.19500000
   H     45.98000000    31.83000000     5.65500000
   H     46.70000000    33.78000000     6.99500000
   H     48.31000000    33.36000000     6.60500000
   N     45.73000000    32.07000000     2.46500000
   C     45.51000000    31.52000000     1.14500000
   H     44.75800000    32.11400000     0.62500000
   H     46.44300000    31.54200000     0.58200000
   H     45.16200000    30.49100000     1.23300000
   H     44.90000000    32.29000000     2.99500000
  Ca     47.11000000    30.76000000    10.71000000
   O     46.47000000    33.43000000    11.31000000
   H     46.30000000    33.64000000    12.23000000
   H     46.63000000    34.28000000    10.90000000
   O     44.34000000    31.51000000    10.96000000
   H     44.35000000    32.38000000    11.36000000
   H     43.71000000    31.01000000    11.49000000

Ca 1.00



