%chk=loop3.apoCaM-CA-Ng.Init293.run75.water5.chk
%nprocshared=20
%mem=10GB
%nosave
#b3lyp/svp scf=(tight,noincore,xqc) Test 
#IOP(5/87=12) Density=Current Pop=(MK,readradii) iop(6/33=2) iop(6/42=6)

loop3.apoCaM-CA-Ng.Init293.run75.water5 

   0  1 
   C     53.59000000    74.84000000    50.35000000
   C     53.32000000    73.34000000    50.36000000
   O     53.80000000    72.64000000    49.47000000
   H     54.53200000    75.03600000    49.83700000
   H     52.78000000    75.35200000    49.83000000
   H     53.65200000    75.20500000    51.37500000
   N     52.69000000    72.82000000    51.42000000
   C     52.32000000    71.43000000    51.61000000
   C     52.35000000    71.10000000    53.09000000
   O     52.30000000    71.97000000    53.96000000
   C     50.85000000    71.26000000    51.21000000
   C     50.38000000    69.83000000    51.41000000
   O     51.17000000    68.89000000    51.15000000
   O     49.23000000    69.62000000    51.83000000
   H     52.44000000    73.47000000    52.15000000
   H     52.95000000    70.82000000    50.96000000
   H     50.69000000    71.67000000    50.21000000
   H     50.23000000    71.88000000    51.85000000
   N     52.61000000    69.83000000    53.42000000
   C     52.54000000    69.20000000    54.72000000
   C     51.22000000    69.28000000    55.47000000
   O     50.41000000    70.15000000    55.14000000
   C     53.77000000    69.43000000    55.60000000
   C     54.25000000    68.22000000    56.40000000
   C     55.39000000    68.49000000    57.38000000
   C     54.97000000    69.38000000    58.55000000
   N     53.77000000    68.89000000    59.24000000
   H     52.51000000    69.22000000    52.63000000
   H     52.56000000    68.12000000    54.56000000
   H     53.79000000    70.40000000    56.09000000
   H     54.61000000    69.54000000    54.93000000
   H     54.55000000    67.42000000    55.72000000
   H     53.40000000    67.85000000    56.98000000
   H     56.19000000    69.04000000    56.88000000
   H     55.83000000    67.56000000    57.74000000
   H     54.74000000    70.39000000    58.21000000
   H     55.83000000    69.44000000    59.22000000
   H     53.95000000    67.98000000    59.63000000
   H     53.40000000    69.51000000    59.95000000
   H     53.00000000    68.77000000    58.60000000
   N     50.97000000    68.57000000    56.57000000
   C     49.93000000    68.85000000    57.54000000
   C     50.21000000    70.00000000    58.49000000
   O     51.37000000    70.37000000    58.63000000
   C     49.52000000    67.60000000    58.30000000
   C     50.65000000    66.88000000    59.01000000
   O     51.81000000    66.77000000    58.57000000
   O     50.42000000    66.21000000    60.04000000
   H     51.67000000    67.89000000    56.84000000
   H     49.06000000    69.24000000    57.00000000
   H     49.08000000    66.93000000    57.55000000
   H     48.72000000    67.90000000    58.97000000
   N     49.17000000    70.66000000    59.02000000
   C     49.26000000    71.62000000    60.10000000
   C     47.97000000    72.39000000    60.36000000
   O     47.45000000    73.04000000    59.45000000
   H     48.23000000    70.44000000    58.73000000
   H     49.97000000    72.41000000    59.86000000
   H     49.60000000    71.07000000    60.98000000
   N     47.59000000    72.32000000    61.64000000
   C     46.36000000    72.92000000    62.12000000
   C     46.64000000    73.73000000    63.37000000
   O     47.18000000    73.16000000    64.32000000
   C     45.36000000    71.77000000    62.28000000
   C     44.13000000    72.17000000    63.08000000
   N     43.28000000    73.14000000    62.71000000
   O     43.89000000    71.56000000    64.11000000
   H     48.11000000    71.84000000    62.36000000
   H     46.00000000    73.55000000    61.31000000
   H     45.83000000    70.91000000    62.76000000
   H     45.00000000    71.53000000    61.28000000
   H     43.34000000    73.60000000    61.82000000
   H     42.46000000    73.22000000    63.30000000
   N     46.23000000    75.00000000    63.38000000
   C     46.36000000    75.88000000    64.53000000
   C     47.77000000    76.04000000    65.09000000
   O     48.73000000    76.19000000    64.34000000
   H     45.97000000    75.51000000    62.55000000
   H     45.82000000    75.37000000    65.33000000
   H     45.86000000    76.82000000    64.31000000
   N     47.79000000    75.94000000    66.42000000
   C     48.93000000    76.11000000    67.29000000
   C     50.11000000    75.22000000    66.92000000
   O     51.20000000    75.46000000    67.43000000
   C     49.32000000    77.59000000    67.33000000
   C     48.19000000    78.53000000    67.66000000
   C     47.61000000    79.26000000    66.62000000
   C     47.67000000    78.65000000    68.95000000
   C     46.58000000    80.17000000    66.89000000
   C     46.64000000    79.56000000    69.23000000
   C     46.09000000    80.35000000    68.20000000
   O     44.89000000    80.97000000    68.39000000
   H     46.94000000    75.74000000    66.92000000
   H     48.65000000    75.87000000    68.31000000
   H     49.73000000    77.97000000    66.40000000
   H     50.10000000    77.73000000    68.09000000
   H     48.00000000    79.16000000    65.62000000
   H     48.13000000    78.05000000    69.72000000
   H     46.24000000    80.60000000    65.96000000
   H     46.29000000    79.54000000    70.25000000
   H     44.59000000    80.86000000    69.29000000
   N     49.89000000    74.15000000    66.15000000
   C     50.86000000    73.12000000    65.83000000
   C     51.37000000    72.28000000    66.99000000
   O     51.44000000    71.06000000    66.82000000
   C     52.03000000    73.70000000    65.03000000
   C     51.54000000    74.47000000    63.81000000
   C     53.03000000    72.62000000    64.61000000
   C     50.61000000    73.73000000    62.86000000
   H     48.98000000    74.01000000    65.74000000
   H     50.31000000    72.46000000    65.16000000
   H     52.52000000    74.49000000    65.59000000
   H     52.47000000    74.61000000    63.26000000
   H     51.15000000    75.42000000    64.18000000
   H     53.89000000    72.89000000    64.00000000
   H     53.50000000    72.19000000    65.49000000
   H     52.40000000    71.83000000    64.18000000
   H     50.63000000    74.27000000    61.91000000
   H     50.88000000    72.68000000    62.69000000
   H     49.59000000    73.76000000    63.26000000
   N     51.58000000    72.85000000    68.18000000
   C     52.13000000    72.07000000    69.27000000
   C     53.61000000    71.80000000    69.07000000
   O     54.11000000    70.78000000    69.53000000
   C     51.81000000    72.75000000    70.59000000
   O     50.40000000    72.77000000    70.65000000
   H     51.53000000    73.86000000    68.21000000
   H     51.62000000    71.11000000    69.35000000
   H     52.34000000    73.70000000    70.55000000
   H     52.26000000    72.07000000    71.31000000
   H     50.16000000    71.89000000    70.96000000
   N     54.37000000    72.56000000    68.28000000
   C     55.76000000    72.34000000    67.93000000
   C     56.21000000    71.06000000    67.23000000
   O     57.38000000    70.71000000    67.17000000
   C     56.69000000    72.66000000    69.10000000
   H     53.98000000    73.43000000    67.96000000
   H     55.93000000    73.12000000    67.19000000
   H     56.46000000    73.58000000    69.64000000
   H     56.60000000    71.86000000    69.84000000
   H     57.76000000    72.60000000    68.87000000
   N     55.28000000    70.31000000    66.63000000
   C     55.58000000    69.11000000    65.87000000
   C     55.85000000    69.40000000    64.40000000
   O     55.24000000    70.27000000    63.79000000
   C     54.51000000    68.05000000    66.13000000
   H     54.34000000    70.67000000    66.60000000
   H     56.50000000    68.69000000    66.28000000
   H     54.97000000    67.07000000    66.01000000
   H     54.22000000    68.16000000    67.17000000
   H     53.67000000    68.14000000    65.44000000
   N     56.81000000    68.62000000    63.89000000
   C     57.28000000    68.47000000    62.52000000
   C     57.97000000    69.71000000    61.96000000
   O     57.98000000    69.82000000    60.74000000
   C     56.23000000    67.91000000    61.57000000
   C     55.74000000    66.55000000    62.07000000
   C     54.49000000    66.05000000    61.36000000
   O     53.63000000    65.35000000    61.93000000
   O     54.34000000    66.40000000    60.17000000
   H     57.25000000    67.98000000    64.53000000
   H     58.03000000    67.69000000    62.54000000
   H     56.73000000    67.70000000    60.62000000
   H     55.50000000    68.71000000    61.40000000
   H     55.57000000    66.43000000    63.14000000
   H     56.55000000    65.83000000    61.96000000
   N     58.66000000    70.53000000    62.76000000
   C     59.10000000    71.79000000    62.20000000
   H     60.09200000    71.66700000    61.76600000
   H     58.40200000    72.10800000    61.42500000
   H     59.13900000    72.54400000    62.98600000
   H     58.63000000    70.41000000    63.76000000
  Ca     52.43000000    64.54000000    59.62000000
   O     50.47000000    63.93000000    57.96000000
   H     50.72000000    63.45000000    57.18000000
   H     49.53000000    63.74000000    58.07000000
   O     54.51000000    63.07000000    60.26000000
   H     55.08000000    63.28000000    61.01000000
   H     54.68000000    62.15000000    60.09000000
   O     52.03000000    61.70000000    59.28000000
   H     51.31000000    61.11000000    59.52000000
   H     52.81000000    61.25000000    59.60000000
   O     50.94000000    63.29000000    61.52000000
   H     51.11000000    63.13000000    62.45000000
   H     50.21000000    62.70000000    61.32000000
   O     53.44000000    64.28000000    57.24000000
   H     54.27000000    64.04000000    56.82000000
   H     52.85000000    64.45000000    56.51000000

Ca 1.00



