%chk=loop4.apoCaM-CA-Ng.Init293.run31.water3.chk
%nprocshared=20
%mem=10GB
%nosave
#b3lyp/svp scf=(tight,noincore,xqc) Test 
#IOP(5/87=12) Density=Current Pop=(MK,readradii) iop(6/33=2) iop(6/42=6)

loop4.apoCaM-CA-Ng.Init293.run31.water3 

   -3  1 
   C     20.23000000     3.14000000     4.75000000
   C     20.79000000     4.48000000     4.28000000
   O     21.98000000     4.65000000     4.05000000
   H     19.24700000     2.98200000     4.30600000
   H     20.90100000     2.33700000     4.44300000
   H     20.14100000     3.14400000     5.83600000
   N     19.93000000     5.49000000     4.16000000
   C     20.27000000     6.82000000     3.69000000
   C     21.13000000     6.88000000     2.44000000
   O     22.26000000     7.36000000     2.37000000
   C     20.70000000     7.73000000     4.83000000
   C     21.98000000     7.30000000     5.55000000
   O     21.79000000     6.81000000     6.69000000
   O     23.10000000     7.68000000     5.17000000
   H     18.98000000     5.40000000     4.50000000
   H     19.34000000     7.21000000     3.29000000
   H     19.86000000     7.59000000     5.51000000
   H     20.88000000     8.75000000     4.49000000
   N     20.55000000     6.44000000     1.32000000
   C     21.01000000     6.36000000    -0.05000000
   C     21.41000000     7.70000000    -0.66000000
   O     21.84000000     7.77000000    -1.81000000
   C     21.96000000     5.21000000    -0.37000000
   C     21.30000000     3.83000000    -0.41000000
   C     23.21000000     5.15000000     0.50000000
   C     20.08000000     3.64000000    -1.31000000
   H     19.66000000     5.98000000     1.48000000
   H     20.13000000     6.18000000    -0.67000000
   H     22.26000000     5.37000000    -1.41000000
   H     21.07000000     3.52000000     0.61000000
   H     22.05000000     3.09000000    -0.69000000
   H     22.99000000     4.94000000     1.55000000
   H     23.88000000     4.38000000     0.12000000
   H     23.69000000     6.11000000     0.37000000
   H     19.19000000     4.13000000    -0.91000000
   H     20.33000000     3.98000000    -2.31000000
   H     19.74000000     2.61000000    -1.43000000
   N     21.14000000     8.81000000     0.03000000
   C     21.38000000    10.22000000    -0.22000000
   C     22.65000000    10.80000000     0.39000000
   O     22.71000000    10.60000000     1.60000000
   C     20.11000000    11.02000000     0.06000000
   C     20.25000000    12.53000000     0.05000000
   O     20.26000000    13.07000000    -1.08000000
   O     20.14000000    13.14000000     1.13000000
   H     20.89000000     8.63000000     0.99000000
   H     21.59000000    10.10000000    -1.28000000
   H     19.87000000    10.74000000     1.09000000
   H     19.43000000    10.63000000    -0.70000000
   N     23.49000000    11.62000000    -0.25000000
   C     23.40000000    12.04000000    -1.63000000
   C     24.71000000    12.56000000    -2.21000000
   O     25.58000000    12.91000000    -1.41000000
   H     24.29000000    11.97000000     0.26000000
   H     22.80000000    12.94000000    -1.73000000
   H     23.03000000    11.19000000    -2.20000000
   N     24.89000000    12.70000000    -3.52000000
   C     23.90000000    12.44000000    -4.54000000
   C     23.77000000    10.97000000    -4.90000000
   O     22.61000000    10.55000000    -4.96000000
   C     24.35000000    13.28000000    -5.73000000
   C     23.40000000    13.22000000    -6.92000000
   O     23.91000000    13.17000000    -8.06000000
   O     22.17000000    13.17000000    -6.76000000
   H     25.57000000    13.38000000    -3.83000000
   H     22.92000000    12.84000000    -4.24000000
   H     25.33000000    12.93000000    -6.05000000
   H     24.39000000    14.33000000    -5.43000000
   N     24.76000000    10.08000000    -4.92000000
   C     26.18000000    10.39000000    -4.88000000
   C     27.01000000     9.56000000    -5.85000000
   O     26.48000000     8.88000000    -6.72000000
   H     24.50000000     9.10000000    -4.97000000
   H     26.59000000    10.29000000    -3.88000000
   H     26.43000000    11.42000000    -5.14000000
   N     28.34000000     9.61000000    -5.70000000
   C     29.23000000     8.90000000    -6.60000000
   C     30.29000000     8.04000000    -5.93000000
   O     31.16000000     7.58000000    -6.66000000
   C     29.90000000     9.93000000    -7.50000000
   C     28.97000000    10.70000000    -8.43000000
   C     28.04000000    11.72000000    -7.79000000
   N     26.77000000    11.80000000    -8.19000000
   O     28.45000000    12.45000000    -6.89000000
   H     28.76000000    10.15000000    -4.96000000
   H     28.80000000     8.14000000    -7.25000000
   H     30.50000000     9.36000000    -8.20000000
   H     30.55000000    10.63000000    -6.98000000
   H     28.29000000     9.97000000    -8.85000000
   H     29.54000000    11.11000000    -9.27000000
   H     26.39000000    11.24000000    -8.94000000
   H     26.35000000    12.62000000    -7.76000000
   N     30.19000000     7.84000000    -4.61000000
   C     30.85000000     6.87000000    -3.76000000
   C     31.08000000     7.43000000    -2.36000000
   O     30.27000000     8.16000000    -1.79000000
   C     30.29000000     5.46000000    -3.64000000
   C     31.39000000     4.46000000    -3.32000000
   C     29.66000000     4.96000000    -4.94000000
   H     29.45000000     8.35000000    -4.15000000
   H     31.82000000     6.66000000    -4.22000000
   H     29.46000000     5.46000000    -2.93000000
   H     32.27000000     4.58000000    -3.95000000
   H     31.61000000     4.55000000    -2.26000000
   H     31.01000000     3.45000000    -3.50000000
   H     29.23000000     3.98000000    -4.72000000
   H     28.76000000     5.54000000    -5.16000000
   H     30.35000000     4.86000000    -5.78000000
   N     32.24000000     7.16000000    -1.75000000
   C     32.62000000     7.50000000    -0.40000000
   C     32.77000000     9.00000000    -0.21000000
   O     32.92000000     9.45000000     0.92000000
   C     33.89000000     6.74000000    -0.02000000
   C     33.86000000     5.22000000    -0.06000000
   N     34.69000000     4.65000000    -0.94000000
   O     33.12000000     4.57000000     0.67000000
   H     33.00000000     6.67000000    -2.20000000
   H     31.82000000     7.16000000     0.26000000
   H     34.15000000     7.00000000     1.01000000
   H     34.77000000     7.08000000    -0.57000000
   H     35.19000000     5.22000000    -1.61000000
   H     34.69000000     3.65000000    -1.08000000
   N     32.75000000     9.80000000    -1.28000000
   C     32.79000000    11.23000000    -1.09000000
   C     31.55000000    11.78000000    -0.40000000
   O     30.40000000    11.53000000    -0.75000000
   C     33.00000000    11.87000000    -2.46000000
   C     33.91000000    11.16000000    -3.43000000
   C     35.29000000    11.24000000    -3.27000000
   C     33.45000000    10.22000000    -4.37000000
   C     36.25000000    10.53000000    -4.01000000
   C     34.36000000     9.50000000    -5.15000000
   C     35.75000000     9.74000000    -5.07000000
   O     36.62000000     9.06000000    -5.87000000
   H     32.58000000     9.44000000    -2.21000000
   H     33.64000000    11.45000000    -0.44000000
   H     33.40000000    12.87000000    -2.31000000
   H     32.05000000    11.97000000    -2.99000000
   H     35.67000000    11.94000000    -2.54000000
   H     32.40000000    10.19000000    -4.62000000
   H     37.28000000    10.81000000    -3.85000000
   H     34.02000000     8.94000000    -6.01000000
   H     36.17000000     8.49000000    -6.50000000
   N     31.76000000    12.41000000     0.76000000
   C     30.75000000    12.99000000     1.62000000
   C     29.78000000    11.97000000     2.19000000
   O     28.96000000    12.31000000     3.04000000
   C     30.09000000    14.12000000     0.84000000
   C     31.05000000    15.19000000     0.34000000
   C     30.33000000    16.03000000    -0.70000000
   O     29.44000000    16.80000000    -0.28000000
   O     30.77000000    16.00000000    -1.87000000
   H     32.68000000    12.29000000     1.15000000
   H     31.24000000    13.52000000     2.44000000
   H     29.25000000    14.52000000     1.42000000
   H     29.70000000    13.64000000    -0.06000000
   H     31.94000000    14.76000000    -0.12000000
   H     31.39000000    15.79000000     1.18000000
   N     29.85000000    10.67000000     1.91000000
   C     28.97000000     9.63000000     2.41000000
   C     29.57000000     8.79000000     3.53000000
   O     28.84000000     7.89000000     3.96000000
   C     28.58000000     8.86000000     1.15000000
   C     27.57000000     9.62000000     0.30000000
   C     26.18000000     9.43000000     0.89000000
   O     25.49000000     8.43000000     0.63000000
   O     25.85000000    10.14000000     1.86000000
   H     30.49000000    10.49000000     1.15000000
   H     28.09000000    10.09000000     2.83000000
   H     28.02000000     7.96000000     1.43000000
   H     29.50000000     8.62000000     0.63000000
   H     27.57000000     9.21000000    -0.71000000
   H     27.80000000    10.68000000     0.15000000
   N     30.81000000     9.01000000     3.97000000
   C     31.42000000     8.43000000     5.15000000
   H     32.32200000     8.98700000     5.40300000
   H     30.71900000     8.47800000     5.98300000
   H     31.67900000     7.39000000     4.95200000
   H     31.31000000     9.81000000     3.60000000
  Ca     24.22000000     8.82000000     3.22000000
   O     25.97000000     9.24000000     5.28000000
   H     26.29000000    10.13000000     5.15000000
   H     26.64000000     8.83000000     5.83000000
   O     23.29000000    10.98000000     4.52000000
   H     23.27000000    11.26000000     5.44000000
   H     22.46000000    11.28000000     4.16000000
   O     25.70000000     6.75000000     3.03000000
   H     26.45000000     6.23000000     3.33000000
   H     25.70000000     6.64000000     2.08000000

Ca 1.00



