%chk=loop1.apoCaM-CA-Ng.Init31.run56.water4.chk
%nprocshared=20
%mem=10GB
%nosave
#b3lyp/svp scf=(tight,noincore,xqc) Test 
#IOP(5/87=12) Density=Current Pop=(MK,readradii) iop(6/33=2) iop(6/42=6)

loop1.apoCaM-CA-Ng.Init31.run56.water4 

   0  1 
   C     80.59000000    82.30000000    11.55000000
   C     81.49000000    83.35000000    10.93000000
   O     81.47000000    84.48000000    11.42000000
   H     79.63800000    82.27900000    11.01900000
   H     81.06700000    81.32300000    11.47800000
   H     80.41600000    82.54300000    12.59800000
   N     82.19000000    83.03000000     9.85000000
   C     83.01000000    83.90000000     9.02000000
   C     82.66000000    83.82000000     7.54000000
   O     82.05000000    82.83000000     7.13000000
   C     84.47000000    83.56000000     9.29000000
   C     85.53000000    84.58000000     8.90000000
   O     85.27000000    85.77000000     8.63000000
   O     86.71000000    84.18000000     8.79000000
   H     82.12000000    82.07000000     9.54000000
   H     82.85000000    84.94000000     9.33000000
   H     84.59000000    82.56000000     8.87000000
   H     84.55000000    83.60000000    10.37000000
   N     82.96000000    84.88000000     6.79000000
   C     82.47000000    85.04000000     5.44000000
   C     82.89000000    84.02000000     4.39000000
   O     82.03000000    83.61000000     3.61000000
   C     82.96000000    86.39000000     4.92000000
   C     82.27000000    87.50000000     5.71000000
   C     82.63000000    88.77000000     4.95000000
   C     82.20000000    89.98000000     5.78000000
   N     82.45000000    91.25000000     5.07000000
   H     83.56000000    85.60000000     7.18000000
   H     81.39000000    85.15000000     5.38000000
   H     82.67000000    86.42000000     3.87000000
   H     84.02000000    86.54000000     5.12000000
   H     82.70000000    87.55000000     6.71000000
   H     81.18000000    87.45000000     5.72000000
   H     82.23000000    88.85000000     3.94000000
   H     83.72000000    88.80000000     4.87000000
   H     82.71000000    89.99000000     6.74000000
   H     81.14000000    89.95000000     5.99000000
   H     83.37000000    91.67000000     5.02000000
   H     82.23000000    91.14000000     4.09000000
   H     81.86000000    91.92000000     5.53000000
   N     84.12000000    83.54000000     4.19000000
   C     85.39000000    83.80000000     4.84000000
   C     86.15000000    82.54000000     5.20000000
   O     86.29000000    81.63000000     4.38000000
   C     86.34000000    84.65000000     4.00000000
   C     87.65000000    85.18000000     4.58000000
   O     88.52000000    85.72000000     3.85000000
   O     87.84000000    84.95000000     5.79000000
   H     84.18000000    82.87000000     3.43000000
   H     85.19000000    84.37000000     5.75000000
   H     85.84000000    85.53000000     3.59000000
   H     86.58000000    84.13000000     3.07000000
   N     86.60000000    82.52000000     6.46000000
   C     87.39000000    81.43000000     6.99000000
   C     88.86000000    81.38000000     6.57000000
   O     89.53000000    80.36000000     6.61000000
   H     86.47000000    83.34000000     7.03000000
   H     86.91000000    80.49000000     6.71000000
   H     87.37000000    81.41000000     8.08000000
   N     89.48000000    82.49000000     6.16000000
   C     90.92000000    82.63000000     6.19000000
   C     91.72000000    81.98000000     5.07000000
   O     91.44000000    82.28000000     3.91000000
   C     91.41000000    84.06000000     6.40000000
   C     90.60000000    84.88000000     7.39000000
   O     90.10000000    84.37000000     8.42000000
   O     90.42000000    86.10000000     7.14000000
   H     88.87000000    83.28000000     5.97000000
   H     91.16000000    82.18000000     7.15000000
   H     91.31000000    84.58000000     5.44000000
   H     92.48000000    84.04000000     6.61000000
   N     92.73000000    81.12000000     5.22000000
   C     93.33000000    80.71000000     6.47000000
   C     94.67000000    81.32000000     6.83000000
   O     95.02000000    81.65000000     7.97000000
   H     93.11000000    80.74000000     4.37000000
   H     93.60000000    79.67000000     6.27000000
   H     92.67000000    80.70000000     7.34000000
   N     95.53000000    81.37000000     5.81000000
   C     96.96000000    81.59000000     5.79000000
   C     97.65000000    80.41000000     6.47000000
   O     98.06000000    80.47000000     7.63000000
   C     97.29000000    82.98000000     6.34000000
   C     96.76000000    83.98000000     5.33000000
   O     98.67000000    83.24000000     6.45000000
   H     95.20000000    81.01000000     4.93000000
   H     97.23000000    81.50000000     4.74000000
   H     96.77000000    83.05000000     7.29000000
   H     98.77000000    83.00000000     7.38000000
   H     96.87000000    85.00000000     5.70000000
   H     97.28000000    83.95000000     4.37000000
   H     95.71000000    83.75000000     5.12000000
   N     97.69000000    79.28000000     5.76000000
   C     98.10000000    77.95000000     6.17000000
   C     99.61000000    77.78000000     6.26000000
   O    100.25000000    77.05000000     5.50000000
   C     97.35000000    77.39000000     7.37000000
   C     95.85000000    77.67000000     7.34000000
   C     97.60000000    75.88000000     7.44000000
   C     94.97000000    76.70000000     8.12000000
   H     97.42000000    79.43000000     4.80000000
   H     97.92000000    77.31000000     5.31000000
   H     97.75000000    77.91000000     8.23000000
   H     95.55000000    77.72000000     6.29000000
   H     95.72000000    78.65000000     7.81000000
   H     97.30000000    75.42000000     6.50000000
   H     98.65000000    75.71000000     7.63000000
   H     97.13000000    75.34000000     8.26000000
   H     95.36000000    76.53000000     9.12000000
   H     94.00000000    77.19000000     8.18000000
   H     94.77000000    75.77000000     7.58000000
   N    100.18000000    78.51000000     7.22000000
   C    101.58000000    78.57000000     7.59000000
   C    101.69000000    78.72000000     9.10000000
   O    100.76000000    79.21000000     9.73000000
   C    102.35000000    79.65000000     6.83000000
   C    101.93000000    81.10000000     7.05000000
   O    102.28000000    79.37000000     5.45000000
   H     99.54000000    79.07000000     7.78000000
   H    102.11000000    77.65000000     7.32000000
   H    103.39000000    79.54000000     7.15000000
   H    102.40000000    78.43000000     5.34000000
   H    100.90000000    81.32000000     6.78000000
   H    102.00000000    81.32000000     8.11000000
   H    102.62000000    81.78000000     6.55000000
   N    102.79000000    78.25000000     9.70000000
   C    103.03000000    78.45000000    11.11000000
   C    103.31000000    79.91000000    11.41000000
   O    103.98000000    80.58000000    10.63000000
   C    104.13000000    77.50000000    11.61000000
   C    103.75000000    76.03000000    11.63000000
   O    105.23000000    77.76000000    10.77000000
   H    103.54000000    77.81000000     9.19000000
   H    102.12000000    78.10000000    11.59000000
   H    104.32000000    77.72000000    12.66000000
   H    105.07000000    77.45000000     9.88000000
   H    103.14000000    75.83000000    12.51000000
   H    103.09000000    75.87000000    10.77000000
   H    104.62000000    75.37000000    11.56000000
   N    102.84000000    80.38000000    12.57000000
   C    102.95000000    81.74000000    13.05000000
   C    102.27000000    82.70000000    12.08000000
   O    102.92000000    83.55000000    11.48000000
   C    104.35000000    82.16000000    13.49000000
   C    104.76000000    81.34000000    14.71000000
   C    106.26000000    81.39000000    15.01000000
   C    106.66000000    80.58000000    16.24000000
   N    108.11000000    80.45000000    16.40000000
   H    102.35000000    79.71000000    13.15000000
   H    102.31000000    81.77000000    13.93000000
   H    104.43000000    83.22000000    13.72000000
   H    105.10000000    81.88000000    12.75000000
   H    104.48000000    80.30000000    14.59000000
   H    104.29000000    81.86000000    15.55000000
   H    106.57000000    82.43000000    15.02000000
   H    106.71000000    80.90000000    14.15000000
   H    106.30000000    79.56000000    16.08000000
   H    106.25000000    81.03000000    17.14000000
   H    108.48000000    79.65000000    15.90000000
   H    108.60000000    81.33000000    16.28000000
   H    108.32000000    80.16000000    17.34000000
   N    100.98000000    82.43000000    11.86000000
   C    100.10000000    83.38000000    11.20000000
   C     99.06000000    82.82000000    10.24000000
   O     98.99000000    83.31000000     9.12000000
   C     99.40000000    84.29000000    12.20000000
   C     99.21000000    85.72000000    11.69000000
   C     98.38000000    86.54000000    12.67000000
   O     98.91000000    86.95000000    13.73000000
   O     97.22000000    86.88000000    12.38000000
   H    100.60000000    81.58000000    12.25000000
   H    100.64000000    84.01000000    10.50000000
   H     99.94000000    84.38000000    13.14000000
   H     98.40000000    83.89000000    12.38000000
   H     98.84000000    85.72000000    10.67000000
   H    100.17000000    86.24000000    11.67000000
   N     98.23000000    81.78000000    10.38000000
   C     98.20000000    80.85000000    11.49000000
   H     97.31100000    81.03300000    12.09300000
   H     98.17600000    79.82900000    11.10900000
   H     99.09000000    80.98800000    12.10500000
   H     97.56000000    81.68000000     9.63000000
  Ca     88.11000000    86.29000000     8.11000000
   O     88.08000000    85.64000000    10.88000000
   H     88.62000000    85.49000000    11.66000000
   H     87.48000000    86.33000000    11.13000000
   O     89.08000000    88.22000000     9.61000000
   H     89.67000000    88.96000000     9.48000000
   H     88.61000000    88.43000000    10.42000000
   O     86.40000000    88.52000000     7.93000000
   H     86.03000000    88.93000000     8.71000000
   H     86.47000000    89.23000000     7.29000000
   O     88.39000000    87.78000000     5.64000000
   H     88.50000000    87.05000000     5.03000000
   H     89.13000000    88.35000000     5.46000000

Ca 1.00



