%chk=loop4.apoCaM-CA-Ng.Init295.run24.water3.chk
%nprocshared=20
%mem=10GB
%nosave
#b3lyp/svp scf=(tight,noincore,xqc) Test 
#IOP(5/87=12) Density=Current Pop=(MK,readradii) iop(6/33=2) iop(6/42=6)

loop4.apoCaM-CA-Ng.Init295.run24.water3 

   -3  1 
   C     94.69000000    37.68000000    69.96000000
   C     95.99000000    37.51000000    69.18000000
   O     95.95000000    37.28000000    67.98000000
   H     93.88800000    37.14800000    69.44900000
   H     94.81200000    37.27400000    70.96400000
   H     94.44000000    38.73900000    70.02400000
   N     97.10000000    37.70000000    69.90000000
   C     98.38000000    37.90000000    69.26000000
   C     98.54000000    39.08000000    68.31000000
   O     99.26000000    38.99000000    67.32000000
   C     99.05000000    36.62000000    68.78000000
   C     99.00000000    35.64000000    69.95000000
   O    100.03000000    35.72000000    70.65000000
   O     98.13000000    34.76000000    70.12000000
   H     97.05000000    37.71000000    70.91000000
   H     99.08000000    38.17000000    70.06000000
   H    100.10000000    36.90000000    68.69000000
   H     98.54000000    36.20000000    67.92000000
   N     97.95000000    40.23000000    68.64000000
   C     98.23000000    41.52000000    68.03000000
   C     98.68000000    42.39000000    69.19000000
   O     97.99000000    42.65000000    70.18000000
   C     96.92000000    42.06000000    67.46000000
   C     96.29000000    41.14000000    66.42000000
   C     97.22000000    43.48000000    66.99000000
   C     94.82000000    41.38000000    66.06000000
   H     97.38000000    40.34000000    69.46000000
   H     98.98000000    41.46000000    67.24000000
   H     96.16000000    42.16000000    68.23000000
   H     96.28000000    40.10000000    66.75000000
   H     96.90000000    41.18000000    65.52000000
   H     97.78000000    43.65000000    66.06000000
   H     96.26000000    43.95000000    66.81000000
   H     97.51000000    44.10000000    67.84000000
   H     94.12000000    41.10000000    66.84000000
   H     94.61000000    42.43000000    65.87000000
   H     94.64000000    40.84000000    65.13000000
   N     99.92000000    42.87000000    69.15000000
   C    100.96000000    42.88000000    68.14000000
   C    101.57000000    41.49000000    68.01000000
   O    101.87000000    41.04000000    66.91000000
   C    101.90000000    44.05000000    68.41000000
   C    101.23000000    45.32000000    68.90000000
   O    100.87000000    46.14000000    68.03000000
   O    101.12000000    45.48000000    70.14000000
   H    100.16000000    43.43000000    69.96000000
   H    100.52000000    43.23000000    67.20000000
   H    102.49000000    44.21000000    67.51000000
   H    102.56000000    43.87000000    69.26000000
   N    101.70000000    40.79000000    69.14000000
   C    102.23000000    39.44000000    69.21000000
   C    103.68000000    39.50000000    68.74000000
   O    104.53000000    40.19000000    69.29000000
   H    101.48000000    41.25000000    70.01000000
   H    101.58000000    38.81000000    68.60000000
   H    102.24000000    39.14000000    70.25000000
   N    103.94000000    38.55000000    67.84000000
   C    105.29000000    38.09000000    67.59000000
   C    105.58000000    37.98000000    66.10000000
   O    106.70000000    37.62000000    65.76000000
   C    105.71000000    36.85000000    68.38000000
   C    105.14000000    35.53000000    67.89000000
   O    105.81000000    34.49000000    68.08000000
   O    104.01000000    35.54000000    67.36000000
   H    103.20000000    37.99000000    67.43000000
   H    106.01000000    38.84000000    67.91000000
   H    105.53000000    37.06000000    69.43000000
   H    106.80000000    36.84000000    68.34000000
   N    104.65000000    38.11000000    65.15000000
   C    104.87000000    37.87000000    63.74000000
   C    104.60000000    36.44000000    63.28000000
   O    104.56000000    36.22000000    62.07000000
   H    103.71000000    38.42000000    65.34000000
   H    105.89000000    38.16000000    63.50000000
   H    104.21000000    38.53000000    63.19000000
   N    104.47000000    35.46000000    64.18000000
   C    104.35000000    34.05000000    63.85000000
   C    103.26000000    33.62000000    62.87000000
   O    103.43000000    32.86000000    61.93000000
   C    105.71000000    33.51000000    63.42000000
   C    106.73000000    33.54000000    64.56000000
   C    108.07000000    33.07000000    64.02000000
   N    109.17000000    33.76000000    64.33000000
   O    108.22000000    32.12000000    63.26000000
   H    104.35000000    35.77000000    65.13000000
   H    104.09000000    33.64000000    64.82000000
   H    106.05000000    33.93000000    62.47000000
   H    105.60000000    32.45000000    63.21000000
   H    106.53000000    32.94000000    65.45000000
   H    106.80000000    34.59000000    64.84000000
   H    109.18000000    34.59000000    64.91000000
   H    110.01000000    33.25000000    64.12000000
   N    102.07000000    34.21000000    62.99000000
   C    100.98000000    33.97000000    62.07000000
   C    100.32000000    32.69000000    62.53000000
   O     99.78000000    32.64000000    63.63000000
   C     99.98000000    35.11000000    61.87000000
   C    100.62000000    36.49000000    61.96000000
   C     99.21000000    34.97000000    60.56000000
   H    101.93000000    34.94000000    63.68000000
   H    101.35000000    33.83000000    61.05000000
   H     99.31000000    35.02000000    62.73000000
   H    100.70000000    36.93000000    62.95000000
   H    101.63000000    36.48000000    61.55000000
   H    100.02000000    37.24000000    61.43000000
   H     98.59000000    34.09000000    60.70000000
   H     98.56000000    35.83000000    60.38000000
   H     99.92000000    34.89000000    59.74000000
   N    100.22000000    31.74000000    61.59000000
   C     99.55000000    30.48000000    61.84000000
   C     98.08000000    30.59000000    62.23000000
   O     97.28000000    31.16000000    61.48000000
   C     99.96000000    29.60000000    60.66000000
   C     99.32000000    28.23000000    60.83000000
   N     99.66000000    27.49000000    61.89000000
   O     98.43000000    27.88000000    60.06000000
   H    100.74000000    31.79000000    60.73000000
   H    100.13000000    30.14000000    62.70000000
   H    101.04000000    29.51000000    60.58000000
   H     99.63000000    29.97000000    59.69000000
   H    100.31000000    27.76000000    62.61000000
   H     99.18000000    26.61000000    61.92000000
   N     97.73000000    29.73000000    63.18000000
   C     96.38000000    29.63000000    63.70000000
   C     96.24000000    29.19000000    65.15000000
   O     96.68000000    28.09000000    65.48000000
   C     95.58000000    28.78000000    62.71000000
   C     94.09000000    28.63000000    62.91000000
   C     93.25000000    29.65000000    62.43000000
   C     93.49000000    27.51000000    63.50000000
   C     91.86000000    29.57000000    62.57000000
   C     92.10000000    27.37000000    63.57000000
   C     91.27000000    28.42000000    63.14000000
   O     89.92000000    28.44000000    63.36000000
   H     98.37000000    29.10000000    63.64000000
   H     95.97000000    30.64000000    63.61000000
   H     96.03000000    27.79000000    62.76000000
   H     95.69000000    29.27000000    61.74000000
   H     93.75000000    30.52000000    62.05000000
   H     94.15000000    26.75000000    63.87000000
   H     91.31000000    30.45000000    62.25000000
   H     91.71000000    26.50000000    64.08000000
   H     89.50000000    27.62000000    63.64000000
   N     95.52000000    30.00000000    65.91000000
   C     95.14000000    29.64000000    67.27000000
   C     93.63000000    29.46000000    67.40000000
   O     93.25000000    28.35000000    67.76000000
   C     95.77000000    30.67000000    68.20000000
   C     95.48000000    30.27000000    69.64000000
   C     96.01000000    31.27000000    70.65000000
   O     97.23000000    31.17000000    70.92000000
   O     95.42000000    32.33000000    70.96000000
   H     95.28000000    30.94000000    65.62000000
   H     95.54000000    28.66000000    67.50000000
   H     95.40000000    31.69000000    68.05000000
   H     96.83000000    30.76000000    67.97000000
   H     95.88000000    29.29000000    69.92000000
   H     94.40000000    30.24000000    69.81000000
   N     92.69000000    30.37000000    67.15000000
   C     92.81000000    31.81000000    66.99000000
   C     91.88000000    32.23000000    65.87000000
   O     91.08000000    31.49000000    65.30000000
   C     92.44000000    32.44000000    68.32000000
   C     91.03000000    32.21000000    68.87000000
   C     90.90000000    30.76000000    69.31000000
   O     90.33000000    29.96000000    68.54000000
   O     91.33000000    30.40000000    70.43000000
   H     91.74000000    30.04000000    67.17000000
   H     93.85000000    32.04000000    66.76000000
   H     92.48000000    33.53000000    68.21000000
   H     93.20000000    32.16000000    69.04000000
   H     90.25000000    32.59000000    68.22000000
   H     91.03000000    32.90000000    69.71000000
   N     92.10000000    33.52000000    65.61000000
   C     91.68000000    34.39000000    64.52000000
   H     90.80300000    34.95900000    64.82800000
   H     92.48900000    35.07700000    64.27000000
   H     91.43300000    33.78600000    63.64700000
   H     92.80000000    33.92000000    66.22000000
  Ca     97.43000000    33.52000000    72.26000000
   O     98.32000000    35.37000000    73.86000000
   H     99.23000000    35.65000000    73.83000000
   H     97.88000000    36.05000000    74.37000000
   O     98.29000000    31.93000000    74.25000000
   H     99.20000000    31.74000000    74.50000000
   H     97.91000000    31.07000000    74.08000000
   O    100.00600000    33.21000000    71.61000000
   H    100.21600000    34.08000000    71.27000000
   H    100.85600000    32.78000000    71.73000000

Ca 1.00



