%chk=loop2.holoCaM.run97.water1.chk
%nprocshared=20
%mem=10GB
%nosave
#b3lyp/svp scf=(tight,noincore,xqc) Test 
#IOP(5/87=12) Density=Current Pop=(MK,readradii) iop(6/33=2) iop(6/42=6)

loop2.holoCaM.run97.water1 

   -2  1 
   C     22.27000000    49.12000000     8.64000000
   C     21.48000000    49.07000000     9.94000000
   O     22.09000000    48.63000000    10.92000000
   H     23.26400000    48.70300000     8.80300000
   H     21.75300000    48.53700000     7.87700000
   H     22.36000000    50.15400000     8.30900000
   N     20.19000000    49.39000000    10.00000000
   C     19.31000000    49.32000000    11.14000000
   C     19.05000000    47.87000000    11.52000000
   O     18.30000000    47.14000000    10.88000000
   C     17.97000000    49.98000000    10.82000000
   C     17.01000000    50.00000000    12.01000000
   O     15.80000000    50.17000000    11.76000000
   O     17.47000000    49.82000000    13.15000000
   H     19.80000000    49.88000000     9.21000000
   H     19.77000000    49.80000000    12.01000000
   H     17.46000000    49.52000000     9.97000000
   H     18.20000000    50.99000000    10.50000000
   N     19.52000000    47.50000000    12.71000000
   C     19.39000000    46.16000000    13.24000000
   C     18.07000000    45.87000000    13.93000000
   O     17.76000000    44.72000000    14.26000000
   C     20.53000000    45.97000000    14.25000000
   H     19.96000000    48.17000000    13.33000000
   H     19.59000000    45.44000000    12.45000000
   H     20.55000000    46.75000000    15.01000000
   H     20.45000000    45.06000000    14.84000000
   H     21.44000000    45.94000000    13.66000000
   N     17.26000000    46.87000000    14.28000000
   C     15.93000000    46.80000000    14.85000000
   C     14.77000000    46.73000000    13.87000000
   O     13.66000000    46.33000000    14.22000000
   C     15.78000000    48.00000000    15.77000000
   C     16.85000000    48.19000000    16.84000000
   O     17.10000000    47.22000000    17.59000000
   O     17.45000000    49.28000000    16.88000000
   H     17.62000000    47.79000000    14.07000000
   H     15.85000000    45.98000000    15.57000000
   H     14.83000000    47.85000000    16.30000000
   H     15.72000000    48.91000000    15.17000000
   N     14.96000000    47.31000000    12.69000000
   C     13.86000000    47.85000000    11.90000000
   C     12.98000000    48.89000000    12.57000000
   O     11.77000000    48.94000000    12.32000000
   H     15.90000000    47.47000000    12.38000000
   H     13.23000000    47.05000000    11.52000000
   H     14.27000000    48.40000000    11.05000000
   N     13.58000000    49.69000000    13.45000000
   C     12.93000000    50.68000000    14.28000000
   C     13.05000000    52.08000000    13.69000000
   O     12.66000000    53.07000000    14.30000000
   C     13.40000000    50.65000000    15.74000000
   C     14.71000000    51.35000000    16.07000000
   N     14.94000000    51.82000000    17.30000000
   O     15.60000000    51.49000000    15.23000000
   H     14.59000000    49.69000000    13.51000000
   H     11.90000000    50.35000000    14.39000000
   H     13.50000000    49.66000000    16.17000000
   H     12.69000000    51.22000000    16.33000000
   H     14.28000000    51.66000000    18.05000000
   H     15.57000000    52.60000000    17.42000000
   N     13.69000000    52.19000000    12.53000000
   C     13.61000000    53.45000000    11.82000000
   C     14.49000000    54.57000000    12.34000000
   O     14.35000000    55.73000000    11.94000000
   H     14.18000000    51.41000000    12.10000000
   H     12.59000000    53.83000000    11.84000000
   H     13.86000000    53.31000000    10.76000000
   N     15.53000000    54.23000000    13.11000000
   C     16.48000000    55.17000000    13.67000000
   C     17.81000000    54.43000000    13.81000000
   O     17.88000000    53.22000000    13.99000000
   C     16.05000000    55.55000000    15.08000000
   C     17.02000000    56.43000000    15.87000000
   O     14.86000000    56.29000000    14.91000000
   H     15.40000000    53.31000000    13.49000000
   H     16.68000000    56.05000000    13.06000000
   H     15.87000000    54.63000000    15.64000000
   H     14.47000000    56.54000000    15.76000000
   H     17.26000000    57.28000000    15.25000000
   H     16.67000000    56.74000000    16.86000000
   H     17.89000000    55.82000000    16.11000000
   N     18.86000000    55.21000000    13.53000000
   C     20.25000000    54.80000000    13.64000000
   C     20.82000000    55.00000000    15.03000000
   O     20.82000000    56.09000000    15.61000000
   C     21.00000000    55.62000000    12.59000000
   C     20.52000000    55.31000000    11.17000000
   C     22.52000000    55.53000000    12.66000000
   C     20.88000000    53.95000000    10.57000000
   H     18.69000000    56.20000000    13.52000000
   H     20.31000000    53.76000000    13.33000000
   H     20.71000000    56.66000000    12.79000000
   H     20.94000000    56.13000000    10.59000000
   H     19.44000000    55.46000000    11.15000000
   H     22.80000000    54.47000000    12.71000000
   H     22.93000000    55.89000000    11.72000000
   H     22.79000000    56.16000000    13.51000000
   H     20.42000000    53.90000000     9.59000000
   H     21.97000000    53.94000000    10.47000000
   H     20.53000000    53.09000000    11.14000000
   N     21.29000000    53.92000000    15.65000000
   C     22.21000000    53.84000000    16.76000000
   C     23.66000000    54.02000000    16.32000000
   O     23.93000000    53.76000000    15.15000000
   C     21.96000000    52.52000000    17.49000000
   C     20.47000000    52.24000000    17.64000000
   O     20.01000000    51.25000000    17.03000000
   O     19.87000000    52.95000000    18.48000000
   H     21.25000000    53.07000000    15.11000000
   H     21.96000000    54.73000000    17.33000000
   H     22.57000000    52.53000000    18.39000000
   H     22.42000000    51.72000000    16.91000000
   N     24.56000000    54.43000000    17.22000000
   C     26.00000000    54.36000000    17.09000000
   C     26.61000000    53.14000000    16.41000000
   O     27.28000000    53.46000000    15.44000000
   C     26.62000000    54.98000000    18.34000000
   C     28.13000000    54.96000000    18.24000000
   C     28.71000000    55.72000000    17.22000000
   C     28.93000000    54.25000000    19.15000000
   C     30.11000000    55.79000000    17.14000000
   C     30.33000000    54.28000000    19.06000000
   C     30.89000000    55.08000000    18.05000000
   H     24.22000000    54.78000000    18.10000000
   H     26.18000000    55.17000000    16.38000000
   H     26.37000000    54.37000000    19.21000000
   H     26.29000000    56.00000000    18.51000000
   H     28.13000000    56.39000000    16.61000000
   H     28.41000000    53.64000000    19.87000000
   H     30.60000000    56.43000000    16.43000000
   H     31.00000000    53.84000000    19.78000000
   H     31.97000000    55.17000000    18.01000000
   N     26.32000000    51.88000000    16.74000000
   C     26.92000000    50.71000000    16.12000000
   C     26.51000000    50.57000000    14.66000000
   O     27.26000000    49.95000000    13.92000000
   C     26.41000000    49.54000000    16.97000000
   C     26.20000000    50.15000000    18.35000000
   C     25.65000000    51.52000000    17.97000000
   H     28.00000000    50.86000000    16.18000000
   H     25.49000000    49.16000000    16.53000000
   H     27.20000000    48.81000000    17.11000000
   H     25.50000000    49.55000000    18.93000000
   H     27.16000000    50.16000000    18.86000000
   H     24.58000000    51.54000000    17.75000000
   H     25.94000000    52.24000000    18.75000000
   N     25.38000000    51.17000000    14.26000000
   C     24.75000000    51.08000000    12.96000000
   C     25.15000000    52.29000000    12.13000000
   O     25.51000000    52.12000000    10.97000000
   C     23.23000000    51.17000000    13.08000000
   C     22.62000000    50.22000000    14.11000000
   C     21.12000000    50.39000000    14.28000000
   O     20.58000000    51.50000000    14.07000000
   O     20.34000000    49.46000000    14.57000000
   H     24.87000000    51.74000000    14.91000000
   H     25.02000000    50.17000000    12.42000000
   H     22.86000000    50.89000000    12.09000000
   H     22.87000000    52.16000000    13.36000000
   H     23.13000000    50.47000000    15.04000000
   H     22.86000000    49.20000000    13.82000000
   N     25.40000000    53.46000000    12.72000000
   C     26.12000000    54.55000000    12.09000000
   H     27.09900000    54.19800000    11.76400000
   H     25.55800000    54.90700000    11.22700000
   H     26.24600000    55.36400000    12.80400000
   H     25.10000000    53.53000000    13.68000000
  Ca     18.20000000    51.06000000    15.30000000
   O     17.61000000    53.27000000    17.12000000
   H     18.54000000    53.12000000    17.32000000
   H     17.26000000    53.70000000    17.89000000

Ca 1.00



