%chk=loop2.holoCaM.run76.water1.chk
%nprocshared=20
%mem=10GB
%nosave
#b3lyp/svp scf=(tight,noincore,xqc) Test 
#IOP(5/87=12) Density=Current Pop=(MK,readradii) iop(6/33=2) iop(6/42=6)

loop2.holoCaM.run76.water1 

   -2  1 
   C     48.35000000    39.14000000    26.90000000
   C     48.12000000    37.91000000    27.76000000
   O     48.27000000    38.06000000    28.97000000
   H     49.36700000    39.12400000    26.50900000
   H     47.64300000    39.14100000    26.07000000
   H     48.20600000    40.03700000    27.50200000
   N     47.81000000    36.76000000    27.17000000
   C     47.50000000    35.49000000    27.82000000
   C     48.77000000    35.02000000    28.52000000
   O     49.58000000    34.30000000    27.94000000
   C     46.95000000    34.59000000    26.72000000
   C     46.37000000    33.33000000    27.33000000
   O     46.03000000    32.41000000    26.55000000
   O     46.15000000    33.25000000    28.56000000
   H     47.70000000    36.76000000    26.17000000
   H     46.78000000    35.82000000    28.57000000
   H     47.68000000    34.30000000    25.96000000
   H     46.19000000    35.18000000    26.21000000
   N     48.82000000    35.25000000    29.83000000
   C     49.99000000    35.10000000    30.68000000
   C     50.13000000    33.63000000    31.04000000
   O     51.24000000    33.16000000    31.30000000
   C     49.91000000    35.98000000    31.92000000
   H     48.04000000    35.68000000    30.30000000
   H     50.83000000    35.40000000    30.05000000
   H     49.49000000    36.97000000    31.75000000
   H     49.48000000    35.47000000    32.78000000
   H     50.92000000    36.25000000    32.24000000
   N     49.04000000    32.89000000    31.22000000
   C     49.12000000    31.44000000    31.31000000
   C     49.08000000    30.63000000    30.03000000
   O     49.41000000    29.44000000    29.99000000
   C     48.20000000    30.78000000    32.33000000
   C     46.73000000    31.18000000    32.34000000
   O     46.30000000    31.94000000    31.45000000
   O     45.95000000    30.77000000    33.23000000
   H     48.17000000    33.39000000    31.12000000
   H     50.04000000    31.15000000    31.82000000
   H     48.59000000    30.87000000    33.35000000
   H     48.28000000    29.72000000    32.11000000
   N     48.79000000    31.21000000    28.86000000
   C     48.60000000    30.58000000    27.58000000
   C     47.36000000    29.70000000    27.45000000
   O     47.21000000    28.96000000    26.48000000
   H     48.48000000    32.17000000    29.00000000
   H     49.45000000    29.93000000    27.37000000
   H     48.55000000    31.35000000    26.81000000
   N     46.42000000    29.75000000    28.40000000
   C     45.35000000    28.77000000    28.41000000
   C     44.33000000    28.98000000    27.30000000
   O     43.48000000    28.15000000    27.02000000
   C     44.72000000    28.68000000    29.79000000
   C     43.98000000    29.88000000    30.35000000
   N     42.99000000    29.63000000    31.21000000
   O     44.20000000    31.03000000    29.95000000
   H     46.44000000    30.55000000    29.02000000
   H     45.78000000    27.78000000    28.25000000
   H     45.52000000    28.41000000    30.48000000
   H     43.97000000    27.89000000    29.78000000
   H     43.06000000    28.69000000    31.58000000
   H     42.56000000    30.38000000    31.73000000
   N     44.47000000    30.12000000    26.62000000
   C     43.58000000    30.50000000    25.54000000
   C     42.25000000    31.15000000    25.86000000
   O     41.37000000    31.17000000    25.01000000
   H     45.12000000    30.81000000    26.98000000
   H     43.45000000    29.69000000    24.82000000
   H     44.03000000    31.26000000    24.90000000
   N     42.21000000    31.86000000    27.00000000
   C     41.08000000    32.65000000    27.44000000
   C     41.57000000    33.86000000    28.23000000
   O     42.67000000    33.87000000    28.78000000
   C     40.02000000    31.89000000    28.22000000
   C     39.42000000    30.75000000    27.40000000
   O     40.62000000    31.50000000    29.43000000
   H     42.95000000    31.74000000    27.67000000
   H     40.59000000    32.99000000    26.53000000
   H     39.19000000    32.57000000    28.44000000
   H     40.37000000    30.58000000    29.56000000
   H     39.31000000    31.05000000    26.36000000
   H     40.06000000    29.86000000    27.36000000
   H     38.46000000    30.65000000    27.89000000
   N     40.80000000    34.95000000    28.26000000
   C     41.16000000    36.18000000    28.94000000
   C     40.61000000    36.09000000    30.35000000
   O     39.39000000    36.06000000    30.54000000
   C     40.65000000    37.33000000    28.08000000
   C     41.19000000    37.43000000    26.66000000
   C     41.02000000    38.62000000    28.80000000
   C     42.67000000    37.74000000    26.48000000
   H     39.85000000    34.84000000    27.91000000
   H     42.24000000    36.29000000    29.04000000
   H     39.56000000    37.36000000    28.06000000
   H     40.60000000    38.20000000    26.15000000
   H     41.05000000    36.46000000    26.17000000
   H     40.71000000    39.43000000    28.14000000
   H     40.46000000    38.61000000    29.74000000
   H     42.05000000    38.73000000    29.13000000
   H     43.02000000    37.69000000    25.45000000
   H     42.80000000    38.77000000    26.81000000
   H     43.14000000    37.11000000    27.23000000
   N     41.50000000    36.12000000    31.35000000
   C     41.06000000    36.31000000    32.72000000
   C     41.19000000    37.76000000    33.16000000
   O     41.82000000    38.53000000    32.43000000
   C     41.82000000    35.36000000    33.64000000
   C     43.33000000    35.24000000    33.48000000
   O     44.07000000    35.92000000    34.24000000
   O     43.88000000    34.41000000    32.72000000
   H     42.47000000    36.26000000    31.12000000
   H     40.01000000    36.06000000    32.84000000
   H     41.33000000    34.39000000    33.53000000
   H     41.62000000    35.51000000    34.70000000
   N     40.59000000    38.15000000    34.28000000
   C     40.36000000    39.53000000    34.67000000
   C     41.56000000    40.45000000    34.52000000
   O     41.30000000    41.46000000    33.86000000
   C     39.69000000    39.61000000    36.04000000
   C     39.44000000    40.99000000    36.60000000
   C     38.99000000    42.03000000    35.78000000
   C     39.47000000    41.15000000    37.99000000
   C     38.80000000    43.30000000    36.32000000
   C     39.25000000    42.42000000    38.55000000
   C     38.95000000    43.48000000    37.70000000
   H     40.04000000    37.45000000    34.75000000
   H     39.63000000    39.97000000    33.99000000
   H     40.35000000    38.99000000    36.64000000
   H     38.73000000    39.11000000    35.93000000
   H     38.86000000    41.87000000    34.72000000
   H     39.64000000    40.36000000    38.70000000
   H     38.48000000    44.15000000    35.73000000
   H     39.28000000    42.57000000    39.62000000
   H     38.78000000    44.48000000    38.08000000
   N     42.77000000    40.19000000    35.02000000
   C     43.94000000    41.02000000    34.83000000
   C     44.45000000    41.13000000    33.40000000
   O     45.02000000    42.15000000    33.01000000
   C     44.98000000    40.54000000    35.83000000
   C     44.71000000    39.04000000    35.93000000
   C     43.18000000    39.05000000    35.82000000
   H     43.64000000    42.02000000    35.14000000
   H     45.97000000    40.81000000    35.47000000
   H     44.83000000    41.03000000    36.80000000
   H     45.06000000    38.60000000    35.00000000
   H     45.07000000    38.66000000    36.89000000
   H     42.82000000    38.10000000    35.41000000
   H     42.66000000    39.17000000    36.77000000
   N     44.27000000    40.05000000    32.64000000
   C     44.49000000    40.06000000    31.21000000
   C     43.46000000    40.89000000    30.46000000
   O     43.76000000    41.64000000    29.54000000
   C     44.58000000    38.67000000    30.59000000
   C     45.62000000    37.71000000    31.17000000
   C     45.26000000    36.28000000    30.79000000
   O     44.16000000    35.90000000    30.34000000
   O     46.19000000    35.45000000    30.94000000
   H     43.63000000    39.35000000    33.00000000
   H     45.47000000    40.54000000    31.09000000
   H     44.84000000    38.79000000    29.54000000
   H     43.60000000    38.21000000    30.73000000
   H     45.75000000    37.71000000    32.25000000
   H     46.59000000    37.94000000    30.73000000
   N     42.20000000    40.98000000    30.90000000
   C     41.24000000    41.84000000    30.25000000
   H     40.36000000    41.94500000    30.88400000
   H     41.68500000    42.82100000    30.08200000
   H     40.94900000    41.40400000    29.29500000
   H     41.85000000    40.37000000    31.62000000
  Ca     44.53000000    33.50000000    30.51000000
   O     41.76000000    32.59000000    31.56000000
   H     41.29000000    32.23000000    30.80000000
   H     41.08000000    32.78000000    32.20000000

Ca 1.00



