%chk=loop4.apoCaM-CA-Ng.Init31.run32.water4.chk
%nprocshared=20
%mem=10GB
%nosave
#b3lyp/svp scf=(tight,noincore,xqc) Test 
#IOP(5/87=12) Density=Current Pop=(MK,readradii) iop(6/33=2) iop(6/42=6)

loop4.apoCaM-CA-Ng.Init31.run32.water4 

   -3  1 
   C     93.20000000    34.16000000    86.95000000
   C     94.52000000    34.28000000    87.71000000
   O     95.13000000    35.33000000    87.86000000
   H     92.47000000    34.84500000    87.38100000
   H     93.35900000    34.41300000    85.90200000
   H     92.82800000    33.13800000    87.02600000
   N     94.99000000    33.21000000    88.35000000
   C     94.59000000    31.81000000    88.36000000
   C     94.28000000    31.32000000    89.77000000
   O     93.73000000    30.22000000    89.75000000
   C     95.72000000    30.90000000    87.88000000
   C     96.37000000    31.35000000    86.58000000
   O     97.46000000    31.97000000    86.55000000
   O     95.78000000    31.35000000    85.48000000
   H     95.86000000    33.39000000    88.83000000
   H     93.72000000    31.60000000    87.75000000
   H     95.35000000    29.88000000    87.79000000
   H     96.44000000    31.01000000    88.68000000
   N     94.63000000    31.94000000    90.90000000
   C     94.04000000    31.50000000    92.15000000
   C     94.59000000    30.19000000    92.69000000
   O     93.78000000    29.34000000    93.08000000
   C     93.95000000    32.72000000    93.06000000
   C     93.23000000    32.44000000    94.38000000
   C     95.37000000    33.17000000    93.41000000
   C     91.77000000    32.00000000    94.22000000
   H     95.26000000    32.73000000    90.88000000
   H     92.98000000    31.34000000    91.99000000
   H     93.39000000    33.54000000    92.61000000
   H     93.33000000    33.31000000    95.02000000
   H     93.64000000    31.56000000    94.87000000
   H     95.32000000    33.98000000    94.15000000
   H     95.97000000    32.36000000    93.80000000
   H     95.87000000    33.57000000    92.53000000
   H     91.30000000    32.65000000    93.48000000
   H     91.76000000    30.96000000    93.91000000
   H     91.27000000    32.20000000    95.17000000
   N     95.88000000    29.86000000    92.58000000
   C     96.44000000    28.59000000    92.97000000
   C     97.44000000    28.08000000    91.95000000
   O     98.56000000    27.62000000    92.18000000
   C     96.97000000    28.69000000    94.40000000
   C     97.19000000    27.33000000    95.04000000
   O     97.89000000    27.24000000    96.07000000
   O     96.81000000    26.29000000    94.46000000
   H     96.49000000    30.58000000    92.20000000
   H     95.59000000    27.89000000    92.95000000
   H     96.21000000    29.14000000    95.04000000
   H     97.87000000    29.29000000    94.45000000
   N     97.07000000    28.19000000    90.67000000
   C     97.78000000    27.72000000    89.50000000
   C     99.10000000    28.41000000    89.21000000
   O     99.36000000    29.47000000    89.79000000
   H     96.10000000    28.48000000    90.57000000
   H     97.12000000    27.96000000    88.66000000
   H     97.85000000    26.65000000    89.64000000
   N    100.01000000    27.75000000    88.49000000
   C    101.26000000    28.36000000    88.09000000
   C    102.46000000    27.42000000    88.07000000
   O    102.41000000    26.32000000    87.53000000
   C    101.14000000    29.00000000    86.71000000
   C    102.36000000    29.83000000    86.33000000
   O    102.82000000    29.56000000    85.20000000
   O    102.73000000    30.87000000    86.93000000
   H     99.82000000    26.81000000    88.17000000
   H    101.50000000    29.11000000    88.84000000
   H    100.29000000    29.69000000    86.67000000
   H    101.07000000    28.20000000    85.99000000
   N    103.56000000    27.70000000    88.77000000
   C    103.90000000    28.84000000    89.59000000
   C    103.37000000    28.80000000    91.02000000
   O    102.32000000    28.20000000    91.22000000
   H    104.20000000    26.92000000    88.86000000
   H    103.60000000    29.82000000    89.22000000
   H    104.99000000    28.82000000    89.64000000
   N    104.00000000    29.32000000    92.07000000
   C    105.22000000    30.07000000    92.33000000
   C    105.34000000    31.38000000    91.56000000
   O    104.94000000    31.42000000    90.40000000
   C    106.38000000    29.11000000    92.08000000
   C    107.80000000    29.50000000    92.48000000
   C    107.87000000    30.14000000    93.86000000
   N    107.89000000    29.44000000    95.00000000
   O    107.77000000    31.35000000    94.09000000
   H    103.45000000    29.08000000    92.88000000
   H    105.12000000    30.35000000    93.38000000
   H    106.44000000    28.74000000    91.06000000
   H    106.27000000    28.22000000    92.70000000
   H    108.12000000    30.28000000    91.80000000
   H    108.49000000    28.66000000    92.55000000
   H    107.81000000    28.44000000    95.02000000
   H    107.81000000    30.07000000    95.79000000
   N    105.87000000    32.44000000    92.18000000
   C    106.00000000    33.77000000    91.61000000
   C    105.47000000    34.83000000    92.57000000
   O    105.83000000    34.86000000    93.74000000
   C    107.40000000    34.10000000    91.10000000
   C    107.90000000    33.10000000    90.06000000
   C    108.53000000    34.12000000    92.12000000
   H    106.39000000    32.35000000    93.04000000
   H    105.44000000    33.86000000    90.68000000
   H    107.38000000    35.11000000    90.70000000
   H    107.58000000    32.10000000    90.33000000
   H    107.51000000    33.29000000    89.06000000
   H    108.98000000    33.17000000    89.95000000
   H    108.25000000    34.61000000    93.05000000
   H    108.72000000    33.05000000    92.25000000
   H    109.35000000    34.65000000    91.64000000
   N    104.60000000    35.71000000    92.07000000
   C    103.83000000    36.69000000    92.82000000
   C    103.68000000    38.03000000    92.12000000
   O    103.11000000    38.91000000    92.77000000
   C    102.52000000    36.07000000    93.29000000
   C    102.53000000    34.76000000    94.07000000
   N    102.15000000    34.74000000    95.35000000
   O    102.78000000    33.70000000    93.49000000
   H    104.20000000    35.37000000    91.21000000
   H    104.30000000    36.91000000    93.78000000
   H    101.88000000    36.02000000    92.41000000
   H    102.05000000    36.77000000    93.99000000
   H    102.19000000    35.63000000    95.82000000
   H    102.06000000    33.84000000    95.80000000
   N    104.07000000    38.25000000    90.86000000
   C    103.90000000    39.49000000    90.15000000
   C    103.85000000    39.20000000    88.65000000
   O    104.81000000    38.57000000    88.22000000
   C    105.07000000    40.46000000    90.38000000
   C    104.88000000    41.71000000    89.56000000
   C    105.89000000    42.20000000    88.72000000
   C    103.71000000    42.49000000    89.64000000
   C    105.70000000    43.34000000    87.93000000
   C    103.54000000    43.66000000    88.91000000
   C    104.48000000    44.04000000    87.92000000
   O    104.36000000    45.26000000    87.31000000
   H    104.63000000    37.54000000    90.41000000
   H    102.97000000    39.95000000    90.46000000
   H    105.99000000    39.97000000    90.07000000
   H    105.23000000    40.76000000    91.42000000
   H    106.88000000    41.78000000    88.68000000
   H    103.00000000    42.31000000    90.44000000
   H    106.56000000    43.71000000    87.40000000
   H    102.65000000    44.24000000    89.09000000
   H    105.23000000    45.40000000    86.92000000
   N    102.76000000    39.66000000    88.04000000
   C    102.66000000    39.67000000    86.60000000
   C    101.19000000    39.50000000    86.22000000
   O    100.44000000    40.47000000    86.32000000
   C    103.21000000    41.02000000    86.15000000
   C    103.32000000    41.05000000    84.62000000
   C    103.78000000    42.41000000    84.11000000
   O    104.98000000    42.59000000    83.84000000
   O    102.93000000    43.33000000    84.06000000
   H    102.08000000    40.17000000    88.59000000
   H    103.37000000    38.98000000    86.13000000
   H    104.25000000    41.18000000    86.46000000
   H    102.58000000    41.88000000    86.36000000
   H    102.36000000    40.78000000    84.19000000
   H    104.03000000    40.30000000    84.28000000
   N    100.73000000    38.34000000    85.74000000
   C     99.32000000    38.04000000    85.57000000
   C     98.60000000    37.56000000    86.82000000
   O     97.39000000    37.35000000    86.78000000
   C     99.27000000    37.00000000    84.46000000
   C     97.95000000    37.17000000    83.72000000
   C     97.76000000    36.21000000    82.56000000
   O     97.44000000    36.63000000    81.42000000
   O     98.02000000    35.01000000    82.80000000
   H    101.40000000    37.59000000    85.68000000
   H     98.85000000    38.98000000    85.28000000
   H     99.45000000    36.04000000    84.94000000
   H    100.14000000    37.14000000    83.82000000
   H     97.85000000    38.22000000    83.43000000
   H     97.05000000    37.08000000    84.34000000
   N     99.28000000    37.39000000    87.96000000
   C     98.66000000    37.06000000    89.22000000
   H     97.64900000    36.69200000    89.04200000
   H     99.24400000    36.28800000    89.72200000
   H     98.61700000    37.95000000    89.84800000
   H    100.26000000    37.67000000    88.01000000
  Ca     97.16000000    32.75000000    83.90000000
   O     97.35000000    32.12000000    81.37000000
   H     98.20000000    31.84000000    81.02000000
   H     96.73000000    31.95000000    80.66000000
   O     99.87700000    32.81000000    84.36000000
   H    100.59700000    33.41000000    84.58000000
   H    100.27700000    31.94000000    84.37000000
   O     96.81000000    34.87000000    85.70000000
   H     96.12000000    34.89000000    86.36000000
   H     97.23000000    35.72000000    85.76000000
   O     98.16000000    30.32000000    83.95000000
   H     97.78000000    29.71000000    84.59000000
   H     98.30000000    29.79000000    83.16000000

Ca 1.00



