%chk=loop2.apoCaM-CA-Ng.Init31.run88.water4.chk
%nprocshared=20
%mem=10GB
%nosave
#b3lyp/svp scf=(tight,noincore,xqc) Test 
#IOP(5/87=12) Density=Current Pop=(MK,readradii) iop(6/33=2) iop(6/42=6)

loop2.apoCaM-CA-Ng.Init31.run88.water4 

   -2  1 
   C     75.22000000    58.65000000    11.53000000
   C     74.46000000    57.51000000    10.87000000
   O     73.33000000    57.73000000    10.43000000
   H     76.14400000    58.83500000    10.98200000
   H     74.60600000    59.55100000    11.52000000
   H     75.45600000    58.38200000    12.56000000
   N     74.94000000    56.29000000    10.62000000
   C     76.32000000    55.84000000    10.66000000
   C     76.63000000    54.98000000    11.88000000
   O     76.08000000    53.89000000    12.02000000
   C     76.62000000    55.12000000     9.35000000
   C     75.66000000    54.10000000     8.76000000
   O     74.68000000    53.73000000     9.44000000
   O     76.02000000    53.54000000     7.71000000
   H     74.27000000    55.59000000    10.34000000
   H     77.03000000    56.67000000    10.66000000
   H     77.56000000    54.59000000     9.52000000
   H     76.82000000    55.87000000     8.59000000
   N     77.42000000    55.51000000    12.81000000
   C     78.01000000    54.75000000    13.89000000
   C     77.02000000    54.28000000    14.95000000
   O     77.45000000    53.62000000    15.89000000
   C     79.09000000    55.61000000    14.56000000
   H     77.75000000    56.46000000    12.68000000
   H     78.58000000    53.92000000    13.48000000
   H     79.76000000    54.86000000    14.96000000
   H     79.63000000    56.24000000    13.86000000
   H     78.69000000    56.16000000    15.40000000
   N     75.71000000    54.41000000    14.76000000
   C     74.81000000    53.53000000    15.48000000
   C     74.97000000    52.06000000    15.13000000
   O     75.31000000    51.73000000    13.99000000
   C     73.36000000    54.01000000    15.43000000
   C     72.67000000    54.32000000    14.11000000
   O     73.15000000    54.11000000    12.98000000
   O     71.52000000    54.81000000    14.15000000
   H     75.42000000    54.92000000    13.94000000
   H     75.09000000    53.59000000    16.53000000
   H     73.31000000    54.93000000    16.00000000
   H     72.76000000    53.30000000    16.00000000
   N     74.65000000    51.22000000    16.12000000
   C     74.39000000    49.82000000    15.88000000
   C     72.91000000    49.74000000    15.55000000
   O     72.10000000    50.41000000    16.18000000
   H     74.46000000    51.61000000    17.03000000
   H     74.50000000    49.22000000    16.78000000
   H     74.90000000    49.40000000    15.00000000
   N     72.52000000    48.87000000    14.61000000
   C     71.17000000    48.52000000    14.23000000
   C     70.92000000    47.02000000    14.28000000
   O     71.82000000    46.28000000    13.89000000
   C     70.83000000    49.07000000    12.85000000
   C     71.09000000    50.56000000    12.76000000
   N     70.02000000    51.36000000    12.71000000
   O     72.19000000    51.10000000    12.84000000
   H     73.30000000    48.34000000    14.26000000
   H     70.33000000    48.91000000    14.81000000
   H     69.82000000    48.74000000    12.57000000
   H     71.43000000    48.60000000    12.07000000
   H     69.06000000    51.09000000    12.90000000
   H     70.15000000    52.36000000    12.79000000
   N     69.67000000    46.63000000    14.52000000
   C     69.13000000    45.34000000    14.15000000
   C     69.81000000    44.16000000    14.85000000
   O     70.54000000    43.36000000    14.29000000
   H     69.00000000    47.38000000    14.65000000
   H     69.33000000    45.21000000    13.09000000
   H     68.04000000    45.28000000    14.13000000
   N     69.45000000    43.92000000    16.11000000
   C     68.29000000    44.42000000    16.83000000
   C     68.68000000    45.35000000    17.97000000
   O     67.79000000    46.14000000    18.30000000
   C     67.34000000    43.35000000    17.36000000
   C     66.73000000    42.58000000    16.20000000
   O     68.03000000    42.46000000    18.21000000
   H     69.95000000    43.15000000    16.54000000
   H     67.74000000    45.07000000    16.15000000
   H     66.49000000    43.85000000    17.83000000
   H     67.33000000    42.11000000    18.76000000
   H     66.22000000    43.26000000    15.53000000
   H     67.57000000    42.18000000    15.63000000
   H     66.09000000    41.76000000    16.54000000
   N     69.87000000    45.25000000    18.57000000
   C     70.45000000    46.10000000    19.59000000
   C     69.58000000    45.95000000    20.82000000
   O     68.85000000    46.89000000    21.13000000
   C     70.68000000    47.53000000    19.13000000
   C     71.33000000    47.64000000    17.75000000
   C     71.49000000    48.25000000    20.20000000
   C     72.53000000    46.74000000    17.47000000
   H     70.45000000    44.49000000    18.25000000
   H     71.44000000    45.68000000    19.81000000
   H     69.77000000    48.12000000    18.98000000
   H     71.75000000    48.64000000    17.64000000
   H     70.59000000    47.53000000    16.95000000
   H     71.41000000    49.31000000    19.94000000
   H     70.96000000    48.12000000    21.15000000
   H     72.51000000    47.90000000    20.36000000
   H     72.89000000    46.96000000    16.47000000
   H     73.38000000    46.88000000    18.13000000
   H     72.25000000    45.69000000    17.47000000
   N     69.58000000    44.90000000    21.65000000
   C     70.42000000    43.73000000    21.56000000
   C     71.58000000    43.90000000    22.53000000
   O     72.73000000    43.67000000    22.17000000
   C     69.68000000    42.43000000    21.88000000
   C     68.67000000    42.45000000    23.01000000
   O     68.00000000    41.41000000    23.20000000
   O     68.53000000    43.40000000    23.81000000
   H     68.94000000    44.90000000    22.44000000
   H     70.80000000    43.68000000    20.53000000
   H     70.36000000    41.59000000    21.99000000
   H     69.11000000    42.24000000    20.97000000
   N     71.29000000    44.10000000    23.82000000
   C     72.19000000    44.64000000    24.82000000
   C     72.01000000    44.05000000    26.21000000
   O     70.85000000    43.82000000    26.56000000
   C     72.12000000    46.16000000    24.80000000
   C     71.03000000    46.85000000    25.57000000
   C     69.76000000    47.10000000    25.04000000
   C     71.36000000    47.47000000    26.78000000
   C     68.87000000    47.96000000    25.69000000
   C     70.49000000    48.38000000    27.41000000
   C     69.19000000    48.55000000    26.92000000
   H     70.31000000    44.04000000    24.05000000
   H     73.22000000    44.43000000    24.51000000
   H     72.08000000    46.50000000    23.76000000
   H     73.05000000    46.49000000    25.26000000
   H     69.43000000    46.62000000    24.13000000
   H     72.30000000    47.29000000    27.29000000
   H     67.84000000    48.04000000    25.38000000
   H     70.84000000    48.80000000    28.34000000
   H     68.54000000    49.32000000    27.30000000
   N     73.01000000    43.95000000    27.08000000
   C     74.36000000    44.45000000    26.93000000
   C     75.26000000    43.87000000    25.84000000
   O     74.79000000    42.96000000    25.17000000
   C     74.99000000    44.24000000    28.30000000
   C     73.89000000    44.19000000    29.36000000
   C     72.78000000    43.63000000    28.47000000
   H     74.19000000    45.49000000    26.63000000
   H     75.56000000    43.31000000    28.27000000
   H     75.77000000    44.97000000    28.54000000
   H     74.20000000    43.47000000    30.12000000
   H     73.59000000    45.17000000    29.71000000
   H     72.71000000    42.55000000    28.55000000
   H     71.86000000    44.05000000    28.87000000
   N     76.54000000    44.23000000    25.75000000
   C     77.38000000    43.83000000    24.63000000
   C     78.35000000    44.87000000    24.09000000
   O     79.55000000    44.61000000    24.00000000
   C     78.03000000    42.50000000    25.01000000
   C     78.52000000    41.60000000    23.88000000
   C     79.13000000    40.32000000    24.46000000
   O     80.21000000    40.29000000    25.09000000
   O     78.50000000    39.28000000    24.18000000
   H     76.86000000    44.99000000    26.33000000
   H     76.72000000    43.59000000    23.79000000
   H     77.24000000    41.93000000    25.49000000
   H     78.87000000    42.73000000    25.67000000
   H     79.19000000    42.17000000    23.24000000
   H     77.64000000    41.37000000    23.28000000
   N     77.97000000    46.08000000    23.67000000
   C     76.77000000    46.82000000    24.01000000
   H     75.95600000    46.12200000    24.20500000
   H     76.95300000    47.42200000    24.90000000
   H     76.49700000    47.47200000    23.18000000
   H     78.63000000    46.56000000    23.08000000
  Ca     74.22000000    52.12000000    11.47000000
   O     71.80000000    52.95000000    10.46000000
   H     70.89000000    52.79000000    10.22000000
   H     71.87000000    53.90000000    10.56000000
   O     76.86000000    51.47000000    10.71000000
   H     77.58000000    51.58000000    11.34000000
   H     77.20000000    51.84000000     9.89000000
   O     73.59000000    50.74000000     9.06000000
   H     74.19000000    50.50000000     8.36000000
   H     72.75000000    50.34000000     8.80000000
   O     74.39000000    49.35000000    11.72000000
   H     74.07000000    48.73000000    11.06000000
   H     74.96000000    48.83000000    12.27000000

Ca 1.00



