%chk=loop3.apoCaM-CA-Ng.Init293.run53.water5.chk
%nprocshared=20
%mem=10GB
%nosave
#b3lyp/svp scf=(tight,noincore,xqc) Test 
#IOP(5/87=12) Density=Current Pop=(MK,readradii) iop(6/33=2) iop(6/42=6)

loop3.apoCaM-CA-Ng.Init293.run53.water5 

   0  1 
   C     39.98000000    85.30000000    75.95000000
   C     39.74000000    85.21000000    74.45000000
   O     40.56000000    85.59000000    73.62000000
   H     40.71900000    86.07500000    76.15300000
   H     39.04600000    85.54900000    76.45400000
   H     40.34800000    84.34200000    76.31800000
   N     38.56000000    84.75000000    74.04000000
   C     38.22000000    84.49000000    72.65000000
   C     37.55000000    83.12000000    72.60000000
   O     37.03000000    82.69000000    73.63000000
   C     37.27000000    85.62000000    72.25000000
   C     36.88000000    85.59000000    70.78000000
   O     37.54000000    84.97000000    69.91000000
   O     35.91000000    86.31000000    70.50000000
   H     37.83000000    84.52000000    74.70000000
   H     39.13000000    84.50000000    72.06000000
   H     37.80000000    86.55000000    72.47000000
   H     36.39000000    85.75000000    72.88000000
   N     37.59000000    82.49000000    71.42000000
   C     36.79000000    81.38000000    70.93000000
   C     35.29000000    81.58000000    71.00000000
   O     34.74000000    82.47000000    71.65000000
   C     37.24000000    80.07000000    71.58000000
   C     38.76000000    79.88000000    71.53000000
   C     39.32000000    79.71000000    70.12000000
   C     40.80000000    79.37000000    70.28000000
   N     41.30000000    78.96000000    68.95000000
   H     38.17000000    82.92000000    70.71000000
   H     37.05000000    81.33000000    69.88000000
   H     36.65000000    79.27000000    71.14000000
   H     36.90000000    80.25000000    72.60000000
   H     39.05000000    78.96000000    72.05000000
   H     39.29000000    80.75000000    71.91000000
   H     39.19000000    80.69000000    69.66000000
   H     38.78000000    78.90000000    69.65000000
   H     41.05000000    78.63000000    71.03000000
   H     41.43000000    80.23000000    70.54000000
   H     41.14000000    79.66000000    68.25000000
   H     42.28000000    78.74000000    69.08000000
   H     40.80000000    78.16000000    68.58000000
   N     34.58000000    80.82000000    70.15000000
   C     33.19000000    81.15000000    69.87000000
   C     32.21000000    80.91000000    71.01000000
   O     31.39000000    81.78000000    71.29000000
   C     32.79000000    80.25000000    68.71000000
   C     32.96000000    78.74000000    68.69000000
   O     33.92000000    78.27000000    68.03000000
   O     32.19000000    78.02000000    69.37000000
   H     35.10000000    80.23000000    69.52000000
   H     33.14000000    82.20000000    69.57000000
   H     33.50000000    80.59000000    67.96000000
   H     31.75000000    80.49000000    68.49000000
   N     32.35000000    79.78000000    71.70000000
   C     31.51000000    79.37000000    72.81000000
   C     30.12000000    78.96000000    72.34000000
   O     29.16000000    79.18000000    73.08000000
   H     32.97000000    79.08000000    71.34000000
   H     31.35000000    80.25000000    73.43000000
   H     31.86000000    78.53000000    73.42000000
   N     29.98000000    78.37000000    71.15000000
   C     28.76000000    77.94000000    70.51000000
   C     28.29000000    76.64000000    71.14000000
   O     29.07000000    75.71000000    71.36000000
   C     28.85000000    77.87000000    68.99000000
   C     29.13000000    79.22000000    68.35000000
   N     29.50000000    79.31000000    67.08000000
   O     29.04000000    80.28000000    68.98000000
   H     30.81000000    78.36000000    70.58000000
   H     27.96000000    78.63000000    70.79000000
   H     28.02000000    77.33000000    68.54000000
   H     29.74000000    77.30000000    68.70000000
   H     29.68000000    78.54000000    66.45000000
   H     29.58000000    80.26000000    66.76000000
   N     26.97000000    76.47000000    71.27000000
   C     26.36000000    75.26000000    71.78000000
   C     26.51000000    75.14000000    73.29000000
   O     26.98000000    76.08000000    73.93000000
   H     26.31000000    77.14000000    70.92000000
   H     26.77000000    74.47000000    71.16000000
   H     25.30000000    75.28000000    71.51000000
   N     26.05000000    74.01000000    73.84000000
   C     26.22000000    73.54000000    75.20000000
   C     27.64000000    73.29000000    75.68000000
   O     27.89000000    72.83000000    76.80000000
   C     25.44000000    74.51000000    76.08000000
   C     25.14000000    73.93000000    77.44000000
   C     25.78000000    74.49000000    78.54000000
   C     24.26000000    72.85000000    77.59000000
   C     25.46000000    74.10000000    79.85000000
   C     23.94000000    72.43000000    78.89000000
   C     24.55000000    73.03000000    80.01000000
   O     24.38000000    72.48000000    81.24000000
   H     25.88000000    73.28000000    73.16000000
   H     25.80000000    72.54000000    75.32000000
   H     24.50000000    74.70000000    75.55000000
   H     25.88000000    75.50000000    76.17000000
   H     26.57000000    75.23000000    78.46000000
   H     23.76000000    72.39000000    76.75000000
   H     26.02000000    74.42000000    80.71000000
   H     23.17000000    71.69000000    79.04000000
   H     23.66000000    71.85000000    81.31000000
   N     28.65000000    73.62000000    74.87000000
   C     30.06000000    73.27000000    74.92000000
   C     30.33000000    71.78000000    74.85000000
   O     31.25000000    71.34000000    74.15000000
   C     30.72000000    74.06000000    76.05000000
   C     30.49000000    75.57000000    75.99000000
   C     32.23000000    73.86000000    76.10000000
   C     30.81000000    76.29000000    74.69000000
   H     28.44000000    73.86000000    73.92000000
   H     30.38000000    73.70000000    73.98000000
   H     30.44000000    73.74000000    77.05000000
   H     31.25000000    75.98000000    76.65000000
   H     29.49000000    75.80000000    76.37000000
   H     32.70000000    74.19000000    77.03000000
   H     32.40000000    72.78000000    76.15000000
   H     32.73000000    74.30000000    75.24000000
   H     31.82000000    76.11000000    74.34000000
   H     30.05000000    76.08000000    73.93000000
   H     30.65000000    77.35000000    74.92000000
   N     29.63000000    70.97000000    75.64000000
   C     29.69000000    69.52000000    75.65000000
   C     31.06000000    68.87000000    75.56000000
   O     31.33000000    68.01000000    74.72000000
   C     28.88000000    68.96000000    76.82000000
   O     29.23000000    69.63000000    78.01000000
   H     28.79000000    71.40000000    76.01000000
   H     29.13000000    69.15000000    74.79000000
   H     28.97000000    67.89000000    76.96000000
   H     27.85000000    69.22000000    76.57000000
   H     28.46000000    69.54000000    78.58000000
   N     31.97000000    69.40000000    76.39000000
   C     33.37000000    69.17000000    76.65000000
   C     34.38000000    69.14000000    75.50000000
   O     35.53000000    68.76000000    75.68000000
   C     33.54000000    67.92000000    77.51000000
   H     31.65000000    70.14000000    77.00000000
   H     33.82000000    70.02000000    77.16000000
   H     34.50000000    67.91000000    78.03000000
   H     32.77000000    67.87000000    78.28000000
   H     33.52000000    67.11000000    76.78000000
   N     33.94000000    69.65000000    74.35000000
   C     34.85000000    69.84000000    73.24000000
   C     35.65000000    71.14000000    73.28000000
   O     35.32000000    71.96000000    74.13000000
   C     34.02000000    69.69000000    71.98000000
   H     33.00000000    70.02000000    74.37000000
   H     35.54000000    69.00000000    73.16000000
   H     33.19000000    70.40000000    71.95000000
   H     34.68000000    69.87000000    71.13000000
   H     33.70000000    68.65000000    71.85000000
   N     36.69000000    71.31000000    72.46000000
   C     37.52000000    72.47000000    72.26000000
   C     38.23000000    73.06000000    73.47000000
   O     39.09000000    73.91000000    73.22000000
   C     36.67000000    73.52000000    71.53000000
   C     36.31000000    73.10000000    70.11000000
   C     35.12000000    73.88000000    69.57000000
   O     34.96000000    75.09000000    69.81000000
   O     34.24000000    73.37000000    68.85000000
   H     36.82000000    70.56000000    71.80000000
   H     38.38000000    72.21000000    71.64000000
   H     37.24000000    74.44000000    71.40000000
   H     35.77000000    73.84000000    72.05000000
   H     36.02000000    72.04000000    70.11000000
   H     37.19000000    73.23000000    69.49000000
   N     37.97000000    72.67000000    74.71000000
   C     38.52000000    73.22000000    75.94000000
   H     39.41100000    73.80300000    75.71000000
   H     37.77900000    73.86300000    76.41500000
   H     38.78300000    72.40700000    76.61600000
   H     37.24000000    71.98000000    74.83000000
  Ca     32.82000000    75.63000000    68.46000000
   O     30.57000000    74.59000000    69.21000000
   H     30.02000000    74.00000000    68.70000000
   H     30.00000000    74.89000000    69.92000000
   O     32.08000000    73.80000000    66.65000000
   H     32.19000000    73.82000000    65.70000000
   H     31.92000000    72.87000000    66.85000000
   O     34.92000000    75.61000000    66.68000000
   H     35.21000000    76.30000000    66.08000000
   H     35.12000000    74.80000000    66.23000000
   O     32.26000000    75.80000000    71.60000000
   H     32.57000000    74.94000000    71.87000000
   H     31.40000000    75.88000000    72.01000000
   O     31.65000000    76.99000000    66.49000000
   H     30.83000000    76.78000000    66.04000000
   H     32.25000000    77.24000000    65.79000000

Ca 1.00



