%chk=loop2.apoCaM-CA-Ng.Init31.run75.water6.chk
%nprocshared=20
%mem=10GB
%nosave
#b3lyp/svp scf=(tight,noincore,xqc) Test 
#IOP(5/87=12) Density=Current Pop=(MK,readradii) iop(6/33=2) iop(6/42=6)

loop2.apoCaM-CA-Ng.Init31.run75.water6 

   -2  1 
   C     77.09000000    50.58000000    23.09000000
   C     75.61000000    50.37000000    22.81000000
   O     74.84000000    51.30000000    23.04000000
   H     77.62000000    50.72700000    22.14900000
   H     77.22000000    51.46000000    23.72000000
   H     77.49200000    49.70400000    23.60000000
   N     75.19000000    49.24000000    22.25000000
   C     75.82000000    48.06000000    21.67000000
   C     74.73000000    47.01000000    21.54000000
   O     73.57000000    47.26000000    21.21000000
   C     76.27000000    48.38000000    20.24000000
   C     75.39000000    49.19000000    19.30000000
   O     74.21000000    49.52000000    19.59000000
   O     75.93000000    49.58000000    18.25000000
   H     74.19000000    49.20000000    22.15000000
   H     76.61000000    47.78000000    22.36000000
   H     76.41000000    47.50000000    19.61000000
   H     77.22000000    48.91000000    20.29000000
   N     75.00000000    45.72000000    21.75000000
   C     74.12000000    44.61000000    21.43000000
   C     72.74000000    44.77000000    22.03000000
   O     72.54000000    44.88000000    23.24000000
   C     74.67000000    43.24000000    21.81000000
   H     75.99000000    45.59000000    21.89000000
   H     74.01000000    44.53000000    20.35000000
   H     75.71000000    43.15000000    21.51000000
   H     74.67000000    43.21000000    22.90000000
   H     74.14000000    42.43000000    21.30000000
   N     71.67000000    44.57000000    21.25000000
   C     70.36000000    44.10000000    21.65000000
   C     69.70000000    43.28000000    20.56000000
   O     70.07000000    43.28000000    19.39000000
   C     69.44000000    45.28000000    21.96000000
   C     69.27000000    46.28000000    20.83000000
   O     70.11000000    47.16000000    20.56000000
   O     68.27000000    46.15000000    20.09000000
   H     71.73000000    44.66000000    20.24000000
   H     70.43000000    43.47000000    22.54000000
   H     69.75000000    45.78000000    22.88000000
   H     68.50000000    44.99000000    22.43000000
   N     68.65000000    42.54000000    20.93000000
   C     68.00000000    41.65000000    19.99000000
   C     67.02000000    40.70000000    20.65000000
   O     66.35000000    41.11000000    21.59000000
   H     68.33000000    42.58000000    21.89000000
   H     68.73000000    41.12000000    19.38000000
   H     67.50000000    42.15000000    19.16000000
   N     66.92000000    39.47000000    20.14000000
   C     65.97000000    38.55000000    20.73000000
   C     66.57000000    37.55000000    21.71000000
   O     65.82000000    37.02000000    22.53000000
   C     65.34000000    37.87000000    19.52000000
   C     64.74000000    36.48000000    19.69000000
   N     65.44000000    35.42000000    19.29000000
   O     63.57000000    36.27000000    20.02000000
   H     67.37000000    39.21000000    19.27000000
   H     65.25000000    39.13000000    21.31000000
   H     65.94000000    37.83000000    18.61000000
   H     64.46000000    38.46000000    19.25000000
   H     66.34000000    35.57000000    18.84000000
   H     65.12000000    34.48000000    19.48000000
   N     67.89000000    37.33000000    21.66000000
   C     68.57000000    36.43000000    22.56000000
   C     67.85000000    35.10000000    22.77000000
   O     67.44000000    34.49000000    21.78000000
   H     68.44000000    37.72000000    20.91000000
   H     68.89000000    36.90000000    23.49000000
   H     69.51000000    36.18000000    22.07000000
   N     67.73000000    34.50000000    23.96000000
   C     67.63000000    35.33000000    25.14000000
   C     68.96000000    35.58000000    25.84000000
   O     68.96000000    36.54000000    26.60000000
   C     66.61000000    34.79000000    26.14000000
   C     65.12000000    34.83000000    25.82000000
   O     66.98000000    33.48000000    26.51000000
   H     67.42000000    33.54000000    24.00000000
   H     67.17000000    36.24000000    24.77000000
   H     66.74000000    35.34000000    27.07000000
   H     67.27000000    33.47000000    27.43000000
   H     64.94000000    34.23000000    24.93000000
   H     64.50000000    34.43000000    26.63000000
   H     64.90000000    35.88000000    25.67000000
   N     70.05000000    34.86000000    25.58000000
   C     71.34000000    34.96000000    26.24000000
   C     71.31000000    34.70000000    27.74000000
   O     70.82000000    35.50000000    28.53000000
   C     72.01000000    36.28000000    25.87000000
   C     71.85000000    36.73000000    24.43000000
   C     73.48000000    36.09000000    26.26000000
   C     72.24000000    35.82000000    23.26000000
   H     69.92000000    33.97000000    25.12000000
   H     71.97000000    34.21000000    25.76000000
   H     71.56000000    37.07000000    26.47000000
   H     72.49000000    37.61000000    24.38000000
   H     70.86000000    37.14000000    24.21000000
   H     74.07000000    36.99000000    26.11000000
   H     73.53000000    35.70000000    27.28000000
   H     74.02000000    35.35000000    25.66000000
   H     72.62000000    36.41000000    22.42000000
   H     73.05000000    35.13000000    23.50000000
   H     71.36000000    35.21000000    23.04000000
   N     71.70000000    33.56000000    28.32000000
   C     72.25000000    32.44000000    27.60000000
   C     73.73000000    32.63000000    27.27000000
   O     74.19000000    32.49000000    26.14000000
   C     71.98000000    31.08000000    28.23000000
   C     72.38000000    30.93000000    29.69000000
   O     72.98000000    31.90000000    30.20000000
   O     72.21000000    29.87000000    30.33000000
   H     71.74000000    33.50000000    29.33000000
   H     71.73000000    32.29000000    26.66000000
   H     72.40000000    30.31000000    27.57000000
   H     70.90000000    30.95000000    28.29000000
   N     74.53000000    32.99000000    28.28000000
   C     75.95000000    33.24000000    28.10000000
   C     76.82000000    32.11000000    28.64000000
   O     76.35000000    31.25000000    29.38000000
   C     76.23000000    34.58000000    28.76000000
   C     76.13000000    34.72000000    30.26000000
   C     74.94000000    35.03000000    30.92000000
   C     77.29000000    34.41000000    30.98000000
   C     74.95000000    35.16000000    32.31000000
   C     77.28000000    34.49000000    32.37000000
   C     76.13000000    34.96000000    33.02000000
   H     74.20000000    32.99000000    29.23000000
   H     76.21000000    33.26000000    27.04000000
   H     75.47000000    35.28000000    28.41000000
   H     77.21000000    34.95000000    28.44000000
   H     73.98000000    35.08000000    30.41000000
   H     78.21000000    34.23000000    30.43000000
   H     74.09000000    35.41000000    32.92000000
   H     78.19000000    34.25000000    32.91000000
   H     76.08000000    35.09000000    34.10000000
   N     78.13000000    32.10000000    28.40000000
   C     79.02000000    33.04000000    27.75000000
   C     78.81000000    33.29000000    26.26000000
   O     78.05000000    32.52000000    25.68000000
   C     80.41000000    32.57000000    28.16000000
   C     80.24000000    31.05000000    28.21000000
   C     78.82000000    30.87000000    28.74000000
   H     78.83000000    34.01000000    28.21000000
   H     81.23000000    32.94000000    27.54000000
   H     80.66000000    32.83000000    29.19000000
   H     80.32000000    30.69000000    27.19000000
   H     80.92000000    30.46000000    28.83000000
   H     78.40000000    29.98000000    28.27000000
   H     78.85000000    30.79000000    29.83000000
   N     79.41000000    34.35000000    25.70000000
   C     79.52000000    34.77000000    24.32000000
   C     79.58000000    36.25000000    24.01000000
   O     79.98000000    36.63000000    22.91000000
   C     80.82000000    34.12000000    23.85000000
   C     80.72000000    32.61000000    23.70000000
   C     81.95000000    32.00000000    23.03000000
   O     82.76000000    31.42000000    23.77000000
   O     82.07000000    32.06000000    21.79000000
   H     79.90000000    34.93000000    26.37000000
   H     78.63000000    34.36000000    23.84000000
   H     81.66000000    34.38000000    24.50000000
   H     81.09000000    34.52000000    22.88000000
   H     79.84000000    32.39000000    23.09000000
   H     80.66000000    32.20000000    24.71000000
   N     79.25000000    37.29000000    24.79000000
   C     78.73000000    37.26000000    26.14000000
   H     77.70700000    36.88400000    26.12600000
   H     79.34900000    36.60600000    26.75400000
   H     78.74000000    38.26700000    26.55600000
   H     79.08000000    38.11000000    24.24000000
  Ca     71.99000000    48.26000000    19.17000000
   O     71.80000000    49.45000000    21.55000000
   H     71.59000000    48.82000000    22.24000000
   H     71.82000000    50.30000000    21.99000000
   O     71.43000000    45.75000000    18.17000000
   H     70.63000000    45.29000000    17.92000000
   H     71.98000000    45.70000000    17.39000000
   O     71.93000000    48.67000000    16.34000000
   H     72.43000000    48.39000000    15.58000000
   H     71.02000000    48.68000000    16.03000000
   O     74.04000000    47.05000000    17.73000000
   H     74.54000000    47.60000000    17.13000000
   H     74.28000000    46.16000000    17.49000000
   O     71.04000000    50.64000000    18.56000000
   H     71.68000000    51.25000000    18.19000000
   H     70.19000000    51.05000000    18.39000000
   O     69.31000000    47.98000000    18.01000000
   H     68.95000000    47.38000000    18.66000000
   H     69.11000000    47.57000000    17.16000000

Ca 1.00



