%chk=loop1.apoCaM-CA-Ng.Init31.run29.water5.chk
%nprocshared=20
%mem=10GB
%nosave
#b3lyp/svp scf=(tight,noincore,xqc) Test 
#IOP(5/87=12) Density=Current Pop=(MK,readradii) iop(6/33=2) iop(6/42=6)

loop1.apoCaM-CA-Ng.Init31.run29.water5 

   0  1 
   C     82.05000000    71.86000000    88.05000000
   C     81.43000000    72.91000000    87.15000000
   O     81.64000000    74.10000000    87.39000000
   H     82.96900000    72.25200000    88.48500000
   H     81.35100000    71.60500000    88.84700000
   H     82.27700000    70.96800000    87.46600000
   N     80.64000000    72.46000000    86.17000000
   C     79.90000000    73.32000000    85.27000000
   C     78.41000000    73.04000000    85.14000000
   O     77.88000000    71.97000000    85.45000000
   C     80.62000000    73.32000000    83.93000000
   C     80.09000000    74.34000000    82.94000000
   O     79.62000000    75.40000000    83.41000000
   O     80.05000000    74.11000000    81.71000000
   H     80.49000000    71.46000000    86.06000000
   H     80.06000000    74.35000000    85.59000000
   H     80.65000000    72.29000000    83.58000000
   H     81.67000000    73.58000000    84.06000000
   N     77.65000000    74.07000000    84.75000000
   C     76.20000000    74.11000000    84.77000000
   C     75.53000000    72.86000000    84.23000000
   O     74.56000000    72.43000000    84.86000000
   C     75.71000000    75.37000000    84.06000000
   C     74.20000000    75.47000000    84.25000000
   C     73.54000000    76.74000000    83.71000000
   C     72.04000000    76.51000000    83.60000000
   N     71.53000000    77.80000000    83.10000000
   H     78.09000000    74.84000000    84.28000000
   H     75.89000000    74.22000000    85.81000000
   H     76.00000000    75.36000000    83.01000000
   H     76.19000000    76.17000000    84.63000000
   H     74.01000000    75.42000000    85.33000000
   H     73.74000000    74.62000000    83.77000000
   H     73.95000000    76.93000000    82.71000000
   H     73.74000000    77.63000000    84.30000000
   H     71.62000000    76.15000000    84.54000000
   H     71.96000000    75.78000000    82.80000000
   H     71.68000000    78.61000000    83.69000000
   H     71.94000000    78.05000000    82.21000000
   H     70.52000000    77.72000000    83.01000000
   N     75.96000000    72.18000000    83.17000000
   C     76.89000000    72.45000000    82.09000000
   C     77.67000000    71.20000000    81.70000000
   O     77.11000000    70.10000000    81.70000000
   C     76.09000000    72.99000000    80.91000000
   C     77.01000000    73.40000000    79.77000000
   O     76.81000000    72.82000000    78.68000000
   O     77.89000000    74.28000000    79.86000000
   H     75.53000000    71.29000000    82.97000000
   H     77.63000000    73.21000000    82.32000000
   H     75.56000000    73.88000000    81.24000000
   H     75.29000000    72.26000000    80.73000000
   N     78.97000000    71.33000000    81.46000000
   C     79.80000000    70.16000000    81.24000000
   C     81.25000000    70.58000000    81.02000000
   O     82.03000000    70.61000000    81.97000000
   H     79.43000000    72.22000000    81.31000000
   H     79.45000000    69.64000000    80.35000000
   H     79.77000000    69.61000000    82.18000000
   N     81.59000000    70.76000000    79.74000000
   C     82.93000000    71.11000000    79.32000000
   C     83.42000000    69.87000000    78.60000000
   O     82.62000000    69.12000000    78.04000000
   C     83.00000000    72.40000000    78.50000000
   C     81.98000000    73.41000000    79.01000000
   O     82.33000000    74.39000000    79.70000000
   O     80.83000000    73.25000000    78.56000000
   H     80.86000000    70.70000000    79.05000000
   H     83.50000000    71.35000000    80.22000000
   H     82.81000000    72.18000000    77.45000000
   H     84.03000000    72.72000000    78.69000000
   N     84.73000000    69.69000000    78.43000000
   C     85.82000000    70.53000000    78.90000000
   C     86.35000000    71.61000000    77.97000000
   O     87.08000000    72.48000000    78.44000000
   H     85.05000000    68.80000000    78.07000000
   H     86.60000000    69.80000000    79.11000000
   H     85.59000000    71.06000000    79.82000000
   N     86.24000000    71.49000000    76.65000000
   C     86.97000000    72.19000000    75.61000000
   C     88.45000000    71.85000000    75.68000000
   O     89.35000000    72.68000000    75.81000000
   C     86.65000000    73.68000000    75.61000000
   C     85.17000000    73.91000000    75.32000000
   O     87.29000000    74.27000000    74.50000000
   H     85.73000000    70.70000000    76.28000000
   H     86.72000000    71.71000000    74.66000000
   H     86.88000000    74.12000000    76.58000000
   H     88.23000000    74.32000000    74.68000000
   H     84.76000000    73.32000000    74.50000000
   H     84.60000000    73.64000000    76.21000000
   H     85.04000000    74.97000000    75.10000000
   N     88.81000000    70.57000000    75.87000000
   C     90.11000000    69.94000000    75.79000000
   C     90.88000000    70.29000000    74.52000000
   O     91.18000000    69.35000000    73.80000000
   C     90.93000000    70.06000000    77.07000000
   C     90.17000000    69.54000000    78.30000000
   C     92.24000000    69.30000000    76.93000000
   C     89.82000000    68.05000000    78.29000000
   H     88.05000000    69.96000000    76.12000000
   H     89.82000000    68.89000000    75.81000000
   H     91.21000000    71.09000000    77.24000000
   H     89.25000000    70.10000000    78.45000000
   H     90.91000000    69.67000000    79.09000000
   H     92.91000000    69.62000000    76.13000000
   H     92.84000000    69.43000000    77.83000000
   H     92.06000000    68.23000000    76.80000000
   H     89.04000000    67.84000000    77.56000000
   H     90.77000000    67.53000000    78.19000000
   H     89.36000000    67.78000000    79.24000000
   N     91.27000000    71.54000000    74.24000000
   C     92.30000000    71.98000000    73.32000000
   C     93.14000000    73.11000000    73.90000000
   O     92.66000000    73.84000000    74.77000000
   C     91.74000000    72.40000000    71.97000000
   C     90.97000000    73.71000000    72.10000000
   O     90.88000000    71.45000000    71.39000000
   H     90.92000000    72.21000000    74.91000000
   H     92.93000000    71.11000000    73.12000000
   H     92.56000000    72.44000000    71.25000000
   H     91.25000000    70.57000000    71.43000000
   H     90.28000000    73.57000000    72.94000000
   H     91.69000000    74.51000000    72.27000000
   H     90.35000000    73.89000000    71.22000000
   N     94.37000000    73.22000000    73.39000000
   C     95.18000000    74.30000000    73.92000000
   C     94.68000000    75.72000000    73.73000000
   O     94.05000000    76.03000000    72.72000000
   C     96.56000000    74.18000000    73.26000000
   C     97.31000000    72.90000000    73.60000000
   O     96.40000000    74.21000000    71.86000000
   H     94.65000000    72.76000000    72.54000000
   H     95.33000000    74.19000000    74.99000000
   H     97.19000000    75.00000000    73.60000000
   H     97.25000000    74.38000000    71.46000000
   H     96.86000000    72.03000000    73.13000000
   H     98.38000000    72.95000000    73.37000000
   H     97.34000000    72.72000000    74.68000000
   N     94.93000000    76.58000000    74.72000000
   C     94.50000000    77.97000000    74.76000000
   C     93.00000000    78.17000000    74.59000000
   O     92.53000000    78.94000000    73.76000000
   C     95.35000000    78.83000000    73.83000000
   C     96.81000000    79.00000000    74.24000000
   C     97.49000000    79.96000000    73.27000000
   C     98.72000000    80.68000000    73.82000000
   N     99.76000000    79.75000000    74.28000000
   H     95.37000000    76.26000000    75.56000000
   H     94.64000000    78.39000000    75.76000000
   H     94.89000000    79.81000000    73.88000000
   H     95.37000000    78.40000000    72.83000000
   H     97.41000000    78.09000000    74.30000000
   H     96.86000000    79.28000000    75.29000000
   H     96.78000000    80.71000000    72.95000000
   H     97.79000000    79.46000000    72.35000000
   H     98.40000000    81.25000000    74.69000000
   H     99.00000000    81.40000000    73.05000000
   H    100.15000000    79.22000000    73.51000000
   H    100.51000000    80.29000000    74.68000000
   H     99.34000000    79.04000000    74.86000000
   N     92.28000000    77.45000000    75.46000000
   C     90.86000000    77.63000000    75.68000000
   C     90.16000000    76.33000000    76.05000000
   O     89.00000000    76.17000000    75.66000000
   C     90.66000000    78.67000000    76.78000000
   C     90.58000000    80.08000000    76.20000000
   C     90.44000000    81.18000000    77.23000000
   O     91.45000000    81.71000000    77.75000000
   O     89.31000000    81.56000000    77.62000000
   H     92.78000000    76.85000000    76.10000000
   H     90.43000000    78.05000000    74.77000000
   H     91.53000000    78.64000000    77.44000000
   H     89.84000000    78.42000000    77.44000000
   H     89.74000000    80.13000000    75.50000000
   H     91.46000000    80.30000000    75.60000000
   N     90.70000000    75.33000000    76.75000000
   C     91.93000000    75.21000000    77.50000000
   H     92.67500000    75.89000000    77.08700000
   H     91.74600000    75.46400000    78.54400000
   H     92.29800000    74.18600000    77.43400000
   H     90.17000000    74.49000000    76.60000000
  Ca     80.05000000    75.52000000    79.55000000
   O     78.65000000    74.77000000    77.09000000
   H     78.41000000    74.68000000    76.16000000
   H     78.06000000    74.17000000    77.55000000
   O     81.35000000    77.55000000    80.74000000
   H     81.85000000    77.67000000    81.55000000
   H     80.77000000    78.31000000    80.70000000
   O     78.36000000    76.91000000    81.47000000
   H     78.57000000    76.51000000    82.31000000
   H     77.61000000    77.47000000    81.65000000
   O     81.64000000    76.37000000    77.57000000
   H     81.45000000    77.26000000    77.26000000
   H     82.57000000    76.25000000    77.39000000
   O     78.90000000    77.76000000    78.64000000
   H     78.08000000    78.27000000    78.69000000
   H     79.33000000    78.09000000    77.85000000

Ca 1.00



