%chk=loop4.holoCaM-CaMKII.run56.water2.chk
%nprocshared=20
%mem=10GB
%nosave
#b3lyp/svp scf=(tight,noincore,xqc) Test 
#IOP(5/87=12) Density=Current Pop=(MK,readradii) iop(6/33=2) iop(6/42=6)

loop4.holoCaM-CaMKII.run56.water2 

   -3  1 
   C     36.42000000    58.83000000    22.25000000
   C     37.46000000    57.74000000    22.51000000
   O     37.33000000    57.10000000    23.55000000
   H     35.53000000    58.63200000    22.84800000
   H     36.83300000    59.80000000    22.52500000
   H     36.15400000    58.83400000    21.19300000
   N     38.46000000    57.48000000    21.66000000
   C     39.44000000    56.42000000    21.76000000
   C     40.35000000    56.59000000    22.96000000
   O     40.96000000    57.63000000    23.17000000
   C     40.14000000    56.28000000    20.41000000
   C     41.11000000    55.11000000    20.27000000
   O     41.88000000    55.04000000    19.29000000
   O     41.26000000    54.27000000    21.17000000
   H     38.59000000    58.22000000    20.98000000
   H     38.76000000    55.59000000    21.96000000
   H     40.71000000    57.20000000    20.26000000
   H     39.36000000    56.14000000    19.67000000
   N     40.41000000    55.54000000    23.78000000
   C     41.22000000    55.44000000    24.98000000
   C     42.65000000    54.95000000    24.79000000
   O     43.48000000    55.36000000    25.60000000
   C     40.59000000    54.65000000    26.13000000
   C     41.00000000    55.35000000    27.42000000
   C     40.73000000    53.13000000    26.16000000
   C     40.31000000    54.97000000    28.73000000
   H     39.93000000    54.72000000    23.42000000
   H     41.42000000    56.45000000    25.34000000
   H     39.52000000    54.83000000    26.13000000
   H     40.68000000    56.39000000    27.37000000
   H     42.09000000    55.25000000    27.49000000
   H     40.19000000    52.67000000    26.99000000
   H     40.23000000    52.75000000    25.27000000
   H     41.75000000    52.76000000    26.11000000
   H     40.70000000    54.00000000    29.02000000
   H     40.48000000    55.70000000    29.52000000
   H     39.23000000    54.86000000    28.61000000
   N     42.92000000    54.10000000    23.80000000
   C     44.15000000    53.35000000    23.64000000
   C     44.89000000    53.49000000    22.32000000
   O     46.01000000    53.03000000    22.12000000
   C     44.03000000    51.88000000    24.02000000
   C     42.91000000    51.01000000    23.45000000
   O     42.06000000    51.54000000    22.71000000
   O     42.95000000    49.81000000    23.78000000
   H     42.16000000    53.81000000    23.20000000
   H     44.79000000    53.77000000    24.42000000
   H     43.97000000    51.84000000    25.11000000
   H     44.96000000    51.41000000    23.73000000
   N     44.30000000    54.16000000    21.32000000
   C     45.00000000    54.70000000    20.17000000
   C     45.03000000    53.84000000    18.92000000
   O     46.07000000    53.80000000    18.28000000
   H     43.34000000    54.42000000    21.46000000
   H     46.00000000    55.08000000    20.41000000
   H     44.36000000    55.55000000    19.94000000
   N     43.96000000    53.09000000    18.62000000
   C     43.90000000    52.04000000    17.63000000
   C     42.92000000    52.37000000    16.51000000
   O     42.84000000    51.51000000    15.63000000
   C     43.52000000    50.77000000    18.39000000
   C     42.15000000    50.83000000    19.03000000
   O     41.83000000    50.08000000    19.98000000
   O     41.32000000    51.72000000    18.73000000
   H     43.11000000    53.53000000    18.96000000
   H     44.88000000    51.86000000    17.20000000
   H     44.29000000    50.58000000    19.13000000
   H     43.53000000    49.91000000    17.72000000
   N     42.21000000    53.49000000    16.62000000
   C     41.38000000    54.22000000    15.68000000
   C     39.92000000    53.78000000    15.66000000
   O     39.31000000    53.98000000    14.61000000
   H     42.34000000    54.01000000    17.47000000
   H     41.79000000    54.09000000    14.68000000
   H     41.38000000    55.29000000    15.89000000
   N     39.52000000    53.04000000    16.69000000
   C     38.16000000    52.55000000    16.81000000
   C     37.70000000    52.61000000    18.26000000
   O     38.55000000    52.74000000    19.14000000
   C     38.01000000    51.13000000    16.26000000
   C     37.99000000    51.23000000    14.74000000
   C     37.56000000    50.01000000    13.93000000
   N     38.40000000    48.97000000    13.88000000
   O     36.49000000    49.93000000    13.34000000
   H     40.13000000    53.12000000    17.49000000
   H     37.46000000    53.15000000    16.24000000
   H     37.20000000    50.47000000    16.57000000
   H     38.96000000    50.70000000    16.58000000
   H     38.99000000    51.53000000    14.43000000
   H     37.26000000    51.99000000    14.46000000
   H     39.33000000    49.15000000    14.20000000
   H     38.21000000    48.12000000    13.36000000
   N     36.39000000    52.52000000    18.47000000
   C     35.67000000    52.62000000    19.73000000
   C     34.90000000    51.36000000    20.10000000
   O     33.92000000    51.06000000    19.42000000
   C     34.76000000    53.84000000    19.65000000
   C     33.76000000    53.87000000    20.80000000
   C     35.60000000    55.10000000    19.85000000
   H     35.80000000    52.48000000    17.65000000
   H     36.40000000    52.85000000    20.50000000
   H     34.26000000    53.90000000    18.68000000
   H     33.24000000    52.92000000    20.89000000
   H     34.20000000    54.05000000    21.78000000
   H     33.00000000    54.64000000    20.63000000
   H     36.49000000    55.09000000    19.24000000
   H     34.98000000    55.93000000    19.52000000
   H     36.08000000    55.24000000    20.82000000
   N     35.30000000    50.70000000    21.19000000
   C     34.57000000    49.54000000    21.67000000
   C     33.58000000    49.78000000    22.80000000
   O     33.41000000    50.93000000    23.21000000
   C     35.63000000    48.53000000    22.10000000
   C     35.90000000    48.62000000    23.59000000
   N     36.79000000    49.54000000    23.97000000
   O     35.55000000    47.71000000    24.34000000
   H     36.09000000    50.99000000    21.74000000
   H     34.03000000    49.05000000    20.86000000
   H     36.53000000    48.71000000    21.51000000
   H     35.28000000    47.52000000    21.90000000
   H     37.25000000    50.19000000    23.34000000
   H     37.20000000    49.56000000    24.89000000
   N     32.83000000    48.77000000    23.24000000
   C     31.87000000    48.93000000    24.32000000
   C     32.37000000    49.68000000    25.54000000
   O     31.80000000    50.61000000    26.11000000
   C     31.19000000    47.60000000    24.63000000
   C     29.98000000    47.85000000    25.49000000
   C     28.89000000    48.51000000    24.89000000
   C     29.91000000    47.54000000    26.85000000
   C     27.79000000    48.89000000    25.67000000
   C     28.78000000    47.84000000    27.63000000
   C     27.68000000    48.46000000    27.00000000
   O     26.54000000    48.83000000    27.64000000
   H     33.01000000    47.83000000    22.92000000
   H     31.17000000    49.65000000    23.89000000
   H     31.89000000    46.95000000    25.17000000
   H     30.72000000    47.04000000    23.83000000
   H     28.89000000    48.75000000    23.84000000
   H     30.74000000    47.03000000    27.31000000
   H     27.02000000    49.54000000    25.29000000
   H     28.69000000    47.62000000    28.68000000
   H     26.50000000    48.77000000    28.60000000
   N     33.62000000    49.35000000    25.88000000
   C     34.19000000    49.89000000    27.09000000
   C     34.54000000    51.37000000    26.95000000
   O     34.52000000    52.13000000    27.92000000
   C     35.42000000    49.10000000    27.52000000
   C     35.03000000    47.73000000    28.07000000
   C     34.93000000    47.75000000    29.59000000
   O     36.04000000    47.70000000    30.17000000
   O     33.87000000    47.69000000    30.23000000
   H     34.08000000    48.57000000    25.42000000
   H     33.44000000    49.83000000    27.89000000
   H     35.90000000    49.67000000    28.32000000
   H     36.11000000    49.00000000    26.69000000
   H     35.79000000    47.01000000    27.77000000
   H     34.07000000    47.39000000    27.69000000
   N     34.88000000    51.82000000    25.74000000
   C     35.12000000    53.24000000    25.57000000
   C     33.84000000    54.04000000    25.36000000
   O     33.85000000    55.22000000    25.69000000
   C     35.96000000    53.48000000    24.32000000
   C     37.41000000    53.01000000    24.38000000
   C     38.08000000    52.67000000    23.06000000
   O     39.00000000    53.38000000    22.60000000
   O     37.75000000    51.67000000    22.39000000
   H     34.90000000    51.20000000    24.95000000
   H     35.54000000    53.61000000    26.51000000
   H     35.99000000    54.54000000    24.07000000
   H     35.54000000    53.06000000    23.40000000
   H     37.41000000    52.16000000    25.07000000
   H     37.95000000    53.80000000    24.90000000
   N     32.77000000    53.42000000    24.85000000
   C     31.46000000    53.96000000    24.56000000
   H     30.77000000    53.68600000    25.35800000
   H     31.52100000    55.04600000    24.49100000
   H     31.10100000    53.55500000    23.61400000
   H     32.95000000    52.44000000    24.69000000
  Ca     40.17000000    51.79000000    21.06000000
   O     38.83000000    49.77000000    19.84000000
   H     39.32000000    49.25000000    19.20000000
   H     38.38000000    49.12000000    20.38000000
   O     39.78000000    49.76000000    22.93000000
   H     40.69000000    49.48000000    22.79000000
   H     39.73000000    49.97000000    23.86000000

Ca 1.00



