%chk=loop2.apoCaM-CA-Ng.Init293.run17.water7.chk
%nprocshared=20
%mem=10GB
%nosave
#b3lyp/svp scf=(tight,noincore,xqc) Test 
#IOP(5/87=12) Density=Current Pop=(MK,readradii) iop(6/33=2) iop(6/42=6)

loop2.apoCaM-CA-Ng.Init293.run17.water7 

   -2  1 
   C     52.41000000    -8.28000000    37.24000000
   C     51.46000000    -8.97000000    38.21000000
   O     51.53000000    -8.80000000    39.42000000
   H     53.36400000    -8.80600000    37.23100000
   H     51.97900000    -8.29200000    36.23900000
   H     52.56800000    -7.24900000    37.55600000
   N     50.52000000    -9.73000000    37.63000000
   C     49.60000000   -10.52000000    38.42000000
   C     50.24000000   -11.40000000    39.48000000
   O     49.91000000   -11.37000000    40.67000000
   C     48.82000000   -11.41000000    37.45000000
   C     48.12000000   -12.59000000    38.10000000
   O     47.35000000   -12.46000000    39.07000000
   O     48.50000000   -13.69000000    37.62000000
   H     50.75000000    -9.82000000    36.65000000
   H     48.84000000    -9.86000000    38.82000000
   H     49.61000000   -11.80000000    36.82000000
   H     48.14000000   -10.74000000    36.92000000
   N     51.20000000   -12.24000000    39.09000000
   C     51.95000000   -13.19000000    39.89000000
   C     52.70000000   -12.64000000    41.10000000
   O     53.06000000   -13.35000000    42.04000000
   C     51.08000000   -14.40000000    40.21000000
   H     51.34000000   -12.39000000    38.10000000
   H     52.69000000   -13.59000000    39.20000000
   H     50.54000000   -14.21000000    41.14000000
   H     50.41000000   -14.58000000    39.37000000
   H     51.69000000   -15.29000000    40.35000000
   N     52.83000000   -11.32000000    41.13000000
   C     53.22000000   -10.44000000    42.21000000
   C     52.44000000   -10.72000000    43.49000000
   O     52.94000000   -10.75000000    44.61000000
   C     54.72000000   -10.43000000    42.48000000
   C     55.55000000   -10.05000000    41.26000000
   O     55.31000000    -8.99000000    40.65000000
   O     56.55000000   -10.77000000    41.03000000
   H     52.65000000   -10.83000000    40.26000000
   H     52.94000000    -9.42000000    41.93000000
   H     54.97000000   -11.32000000    43.06000000
   H     54.87000000    -9.62000000    43.20000000
   N     51.16000000   -11.04000000    43.25000000
   C     50.17000000   -11.19000000    44.30000000
   C     49.95000000    -9.89000000    45.06000000
   O     50.00000000    -8.83000000    44.45000000
   H     50.81000000   -10.95000000    42.31000000
   H     50.44000000   -12.06000000    44.89000000
   H     49.25000000   -11.61000000    43.88000000
   N     49.76000000   -10.01000000    46.38000000
   C     49.68000000    -8.87000000    47.27000000
   C     48.71000000    -7.77000000    46.86000000
   O     48.95000000    -6.58000000    47.04000000
   C     51.11000000    -8.46000000    47.61000000
   C     51.94000000    -9.52000000    48.31000000
   N     52.79000000   -10.24000000    47.57000000
   O     51.88000000    -9.78000000    49.51000000
   H     49.64000000   -10.95000000    46.72000000
   H     49.32000000    -9.27000000    48.22000000
   H     51.13000000    -7.56000000    48.23000000
   H     51.64000000    -8.27000000    46.68000000
   H     52.77000000   -10.20000000    46.56000000
   H     53.28000000   -11.00000000    48.02000000
   N     47.52000000    -8.12000000    46.39000000
   C     46.50000000    -7.16000000    46.00000000
   C     46.55000000    -6.63000000    44.57000000
   O     45.57000000    -6.07000000    44.08000000
   H     47.38000000    -9.06000000    46.03000000
   H     46.55000000    -6.27000000    46.62000000
   H     45.53000000    -7.50000000    46.33000000
   N     47.70000000    -6.84000000    43.91000000
   C     48.08000000    -6.41000000    42.58000000
   C     49.07000000    -5.25000000    42.57000000
   O     49.91000000    -5.18000000    43.47000000
   C     48.61000000    -7.62000000    41.83000000
   C     47.93000000    -8.98000000    42.00000000
   O     48.56000000    -7.32000000    40.45000000
   H     48.42000000    -7.36000000    44.39000000
   H     47.21000000    -6.16000000    41.98000000
   H     49.65000000    -7.74000000    42.11000000
   H     49.35000000    -7.73000000    40.09000000
   H     48.53000000    -9.71000000    41.46000000
   H     48.02000000    -9.40000000    43.01000000
   H     46.88000000    -8.96000000    41.73000000
   N     48.95000000    -4.35000000    41.60000000
   C     49.88000000    -3.27000000    41.35000000
   C     51.32000000    -3.76000000    41.24000000
   O     51.46000000    -4.94000000    40.93000000
   C     49.39000000    -2.37000000    40.21000000
   C     49.69000000    -0.90000000    40.47000000
   C     49.78000000    -2.87000000    38.82000000
   C     49.10000000    -0.02000000    39.36000000
   H     48.15000000    -4.50000000    41.01000000
   H     49.81000000    -2.68000000    42.26000000
   H     48.31000000    -2.37000000    40.37000000
   H     50.77000000    -0.81000000    40.57000000
   H     49.16000000    -0.60000000    41.38000000
   H     48.88000000    -2.84000000    38.22000000
   H     50.62000000    -2.31000000    38.40000000
   H     50.06000000    -3.92000000    38.89000000
   H     49.60000000    -0.10000000    38.40000000
   H     48.08000000    -0.37000000    39.19000000
   H     49.01000000     1.03000000    39.63000000
   N     52.33000000    -2.91000000    41.39000000
   C     53.71000000    -3.34000000    41.34000000
   C     54.27000000    -3.43000000    42.76000000
   O     55.38000000    -3.04000000    43.10000000
   C     54.50000000    -2.39000000    40.44000000
   C     55.68000000    -3.07000000    39.78000000
   O     55.85000000    -4.31000000    39.82000000
   O     56.54000000    -2.35000000    39.22000000
   H     52.14000000    -1.94000000    41.59000000
   H     53.66000000    -4.34000000    40.91000000
   H     54.78000000    -1.46000000    40.95000000
   H     53.85000000    -2.05000000    39.63000000
   N     53.46000000    -3.85000000    43.73000000
   C     53.78000000    -3.99000000    45.13000000
   C     53.98000000    -2.84000000    46.11000000
   O     54.79000000    -2.96000000    47.03000000
   C     52.74000000    -4.96000000    45.71000000
   C     53.03000000    -5.30000000    47.16000000
   C     53.89000000    -6.35000000    47.48000000
   C     52.33000000    -4.62000000    48.16000000
   C     54.13000000    -6.62000000    48.83000000
   C     52.50000000    -5.01000000    49.50000000
   C     53.35000000    -6.07000000    49.85000000
   H     52.55000000    -4.15000000    43.40000000
   H     54.73000000    -4.51000000    45.23000000
   H     52.70000000    -5.88000000    45.14000000
   H     51.73000000    -4.57000000    45.61000000
   H     54.32000000    -6.93000000    46.67000000
   H     51.48000000    -4.00000000    47.91000000
   H     54.84000000    -7.41000000    48.99000000
   H     51.95000000    -4.55000000    50.30000000
   H     53.47000000    -6.33000000    50.90000000
   N     53.30000000    -1.70000000    46.01000000
   C     52.28000000    -1.37000000    45.03000000
   C     52.70000000    -0.40000000    43.93000000
   O     52.36000000    -0.55000000    42.76000000
   C     51.10000000    -0.90000000    45.88000000
   C     51.68000000    -0.37000000    47.18000000
   C     53.13000000    -0.84000000    47.17000000
   H     51.95000000    -2.25000000    44.48000000
   H     50.56000000    -0.18000000    45.27000000
   H     50.52000000    -1.81000000    46.01000000
   H     51.63000000     0.71000000    47.35000000
   H     51.19000000    -0.80000000    48.06000000
   H     53.66000000     0.11000000    47.11000000
   H     53.42000000    -1.34000000    48.09000000
   N     53.53000000     0.59000000    44.27000000
   C     53.72000000     1.80000000    43.50000000
   C     54.41000000     1.57000000    42.16000000
   O     55.32000000     0.76000000    42.02000000
   C     54.52000000     2.81000000    44.33000000
   C     53.66000000     3.45000000    45.42000000
   C     54.45000000     4.45000000    46.26000000
   O     54.82000000     5.55000000    45.78000000
   O     54.67000000     4.12000000    47.44000000
   H     53.92000000     0.59000000    45.20000000
   H     52.69000000     2.10000000    43.35000000
   H     54.82000000     3.57000000    43.61000000
   H     55.37000000     2.23000000    44.69000000
   H     53.19000000     2.66000000    45.99000000
   H     52.79000000     3.98000000    45.03000000
   N     53.96000000     2.29000000    41.13000000
   C     54.21000000     2.05000000    39.72000000
   H     55.25500000     1.77600000    39.57800000
   H     53.57200000     1.23900000    39.37000000
   H     53.99200000     2.95500000    39.15300000
   H     53.24000000     2.97000000    41.32000000
  Ca     56.43000000    -6.71300000    40.46000000
   O     54.97000000    -6.75300000    42.77000000
   H     54.11000000    -7.05300000    43.06000000
   H     55.53000000    -6.85300000    43.54000000
   O     57.20000000    -4.95300000    42.35000000
   H     57.99000000    -4.40300000    42.37000000
   H     56.53000000    -4.43300000    42.80000000
   O     56.72000000    -6.23300000    37.89000000
   H     56.31000000    -6.86300000    37.30000000
   H     57.11000000    -5.58300000    37.31000000
   O     57.89000000    -9.17300000    39.27000000
   H     58.27000000    -9.92300000    38.82000000
   H     57.57000000    -9.53300000    40.09000000
   O     59.24000000    -6.07300000    40.49000000
   H     59.88000000    -5.68300000    41.08000000
   H     59.69000000    -6.14300000    39.64000000
   O     53.61000000    -6.83300000    39.95000000
   H     53.10000000    -6.04300000    40.14000000
   H     52.99000000    -7.55300000    40.10000000
   O     57.91000000    -8.22300000    42.00000000
   H     58.02000000    -7.72300000    42.82000000
   H     58.78000000    -8.60300000    41.84000000

Ca 1.00



