%chk=loop1.apoCaM-CA-Ng.Init295.run81.water5.chk
%nprocshared=20
%mem=10GB
%nosave
#b3lyp/svp scf=(tight,noincore,xqc) Test 
#IOP(5/87=12) Density=Current Pop=(MK,readradii) iop(6/33=2) iop(6/42=6)

loop1.apoCaM-CA-Ng.Init295.run81.water5 

   0  1 
   C      1.68000000   102.80000000    53.36000000
   C      2.20000000   103.48000000    52.10000000
   O      1.43000000   103.83000000    51.21000000
   H      0.66300000   102.44800000    53.18900000
   H      2.32000000   101.95300000    53.60700000
   H      1.68400000   103.51200000    54.18600000
   N      3.43000000   104.00000000    52.17000000
   C      4.15000000   104.72000000    51.15000000
   C      5.59000000   104.23000000    51.08000000
   O      6.06000000   103.59000000    52.02000000
   C      4.04000000   106.22000000    51.39000000
   C      4.22000000   107.08000000    50.15000000
   O      3.70000000   108.21000000    50.16000000
   O      4.89000000   106.66000000    49.18000000
   H      3.85000000   104.00000000    53.09000000
   H      3.67000000   104.56000000    50.19000000
   H      4.78000000   106.64000000    52.07000000
   H      3.06000000   106.44000000    51.82000000
   N      6.19000000   104.48000000    49.91000000
   C      7.38000000   103.73000000    49.57000000
   C      8.60000000   104.38000000    50.21000000
   O      9.59000000   103.65000000    50.29000000
   C      7.58000000   103.64000000    48.07000000
   C      6.62000000   102.58000000    47.54000000
   C      6.65000000   102.47000000    46.02000000
   C      5.36000000   101.75000000    45.67000000
   N      5.03000000   101.64000000    44.24000000
   H      5.89000000   105.16000000    49.23000000
   H      7.34000000   102.76000000    50.07000000
   H      8.59000000   103.28000000    47.87000000
   H      7.43000000   104.65000000    47.66000000
   H      5.61000000   102.90000000    47.76000000
   H      6.77000000   101.60000000    48.00000000
   H      7.52000000   101.93000000    45.65000000
   H      6.60000000   103.49000000    45.62000000
   H      4.46000000   102.27000000    46.00000000
   H      5.44000000   100.76000000    46.12000000
   H      5.70000000   101.17000000    43.64000000
   H      4.32000000   100.92000000    44.15000000
   H      4.74000000   102.50000000    43.79000000
   N      8.54000000   105.67000000    50.54000000
   C      9.55000000   106.32000000    51.35000000
   C      8.84000000   107.30000000    52.27000000
   O      7.79000000   107.85000000    51.92000000
   C     10.68000000   106.84000000    50.48000000
   C     11.83000000   107.47000000    51.26000000
   O     13.00000000   107.06000000    51.15000000
   O     11.64000000   108.47000000    51.98000000
   H      7.70000000   106.22000000    50.43000000
   H     10.00000000   105.59000000    52.02000000
   H     10.31000000   107.59000000    49.78000000
   H     10.99000000   106.04000000    49.81000000
   N      9.35000000   107.31000000    53.51000000
   C      8.82000000   107.95000000    54.70000000
   C      9.92000000   108.14000000    55.73000000
   O     10.50000000   107.20000000    56.26000000
   H     10.13000000   106.68000000    53.64000000
   H      8.16000000   107.27000000    55.24000000
   H      8.35000000   108.90000000    54.45000000
   N     10.14000000   109.42000000    56.07000000
   C     11.01000000   109.94000000    57.10000000
   C     10.18000000   110.65000000    58.16000000
   O      9.32000000   111.48000000    57.88000000
   C     12.09000000   110.90000000    56.59000000
   C     12.91000000   110.23000000    55.50000000
   O     13.41000000   109.11000000    55.71000000
   O     12.94000000   110.73000000    54.35000000
   H      9.61000000   110.15000000    55.61000000
   H     11.49000000   109.14000000    57.67000000
   H     12.68000000   111.29000000    57.42000000
   H     11.67000000   111.79000000    56.13000000
   N     10.63000000   110.58000000    59.41000000
   C     10.12000000   111.35000000    60.53000000
   C      8.72000000   111.09000000    61.07000000
   O      7.99000000   110.22000000    60.59000000
   H     11.54000000   110.16000000    59.56000000
   H     10.16000000   112.39000000    60.22000000
   H     10.87000000   111.24000000    61.31000000
   N      8.40000000   111.61000000    62.25000000
   C      7.17000000   111.44000000    62.99000000
   C      7.52000000   110.88000000    64.36000000
   O      8.36000000   111.53000000    64.97000000
   C      6.36000000   112.74000000    63.00000000
   C      6.97000000   114.04000000    63.51000000
   O      5.73000000   112.96000000    61.76000000
   H      9.08000000   112.18000000    62.74000000
   H      6.61000000   110.72000000    62.39000000
   H      5.51000000   112.56000000    63.66000000
   H      6.36000000   113.34000000    61.14000000
   H      6.21000000   114.80000000    63.67000000
   H      7.46000000   113.74000000    64.44000000
   H      7.71000000   114.35000000    62.77000000
   N      6.80000000   109.86000000    64.83000000
   C      7.03000000   109.37000000    66.18000000
   C      8.22000000   108.43000000    66.30000000
   O      8.72000000   108.14000000    67.38000000
   C      5.79000000   108.86000000    66.92000000
   C      5.24000000   107.65000000    66.18000000
   C      4.79000000   110.01000000    67.01000000
   C      3.99000000   107.06000000    66.83000000
   H      6.07000000   109.42000000    64.29000000
   H      7.35000000   110.23000000    66.76000000
   H      6.17000000   108.71000000    67.93000000
   H      5.97000000   106.85000000    66.24000000
   H      5.01000000   107.97000000    65.16000000
   H      5.41000000   110.89000000    67.20000000
   H      4.13000000   110.24000000    66.17000000
   H      4.20000000   109.89000000    67.92000000
   H      3.62000000   106.24000000    66.21000000
   H      4.15000000   106.91000000    67.90000000
   H      3.18000000   107.78000000    66.72000000
   N      8.77000000   108.07000000    65.14000000
   C     10.02000000   107.34000000    65.10000000
   C      9.92000000   105.98000000    65.76000000
   O      9.01000000   105.22000000    65.44000000
   C     10.61000000   107.14000000    63.70000000
   C     10.59000000   108.37000000    62.80000000
   O     12.00000000   106.90000000    63.78000000
   H      8.21000000   108.27000000    64.32000000
   H     10.76000000   107.92000000    65.65000000
   H     10.15000000   106.21000000    63.38000000
   H     12.20000000   106.65000000    62.88000000
   H      9.56000000   108.66000000    62.55000000
   H     11.03000000   109.24000000    63.29000000
   H     11.21000000   108.16000000    61.93000000
   N     10.79000000   105.72000000    66.75000000
   C     10.94000000   104.47000000    67.48000000
   C      9.86000000   104.21000000    68.51000000
   O     10.03000000   103.42000000    69.44000000
   C     12.36000000   104.30000000    68.00000000
   C     12.96000000   105.28000000    69.00000000
   O     13.27000000   104.40000000    66.93000000
   H     11.60000000   106.31000000    66.76000000
   H     10.76000000   103.72000000    66.71000000
   H     12.44000000   103.28000000    68.39000000
   H     13.37000000   105.34000000    66.75000000
   H     12.43000000   105.23000000    69.96000000
   H     14.01000000   105.03000000    69.11000000
   H     12.72000000   106.28000000    68.63000000
   N      8.68000000   104.83000000    68.39000000
   C      7.46000000   104.72000000    69.17000000
   C      6.38000000   104.03000000    68.35000000
   O      6.19000000   104.16000000    67.14000000
   C      7.04000000   106.13000000    69.57000000
   C      7.98000000   106.76000000    70.60000000
   C      7.52000000   108.15000000    71.00000000
   C      8.42000000   108.64000000    72.14000000
   N      8.23000000   110.08000000    72.37000000
   H      8.62000000   105.47000000    67.61000000
   H      7.64000000   104.11000000    70.05000000
   H      6.07000000   106.11000000    70.05000000
   H      6.76000000   106.72000000    68.69000000
   H      9.04000000   106.76000000    70.33000000
   H      7.96000000   106.10000000    71.47000000
   H      6.50000000   108.13000000    71.38000000
   H      7.58000000   108.75000000    70.09000000
   H      9.47000000   108.42000000    71.95000000
   H      8.17000000   108.09000000    73.04000000
   H      7.26000000   110.22000000    72.61000000
   H      8.91000000   110.51000000    72.98000000
   H      8.22000000   110.64000000    71.53000000
   N      5.37000000   103.52000000    69.06000000
   C      4.19000000   102.91000000    68.48000000
   C      4.47000000   101.55000000    67.86000000
   O      5.20000000   100.77000000    68.47000000
   C      3.01000000   102.87000000    69.44000000
   C      2.57000000   104.27000000    69.87000000
   C      1.52000000   104.25000000    70.98000000
   O      0.31000000   104.06000000    70.73000000
   O      1.87000000   104.44000000    72.16000000
   H      5.45000000   103.65000000    70.06000000
   H      3.86000000   103.58000000    67.68000000
   H      3.32000000   102.25000000    70.28000000
   H      2.12000000   102.36000000    69.07000000
   H      2.14000000   104.83000000    69.05000000
   H      3.42000000   104.85000000    70.23000000
   N      3.82000000   101.18000000    66.76000000
   C      3.01000000   101.96000000    65.84000000
   H      2.10800000   102.29900000    66.34900000
   H      3.57900000   102.82400000    65.49700000
   H      2.73400000   101.34300000    64.98500000
   H      3.93000000   100.18000000    66.60000000
  Ca     14.23000000   108.58600000    53.19000000
   O     12.93000000   106.21600000    54.46000000
   H     13.41000000   105.45600000    54.79000000
   H     12.22000000   105.84600000    53.94000000
   O     14.18000000   109.93600000    50.87000000
   H     13.74000000   110.70600000    50.52000000
   H     14.70000000   109.60600000    50.13000000
   O     15.84000000   107.46600000    55.02000000
   H     15.80000000   107.57600000    55.97000000
   H     16.49000000   106.76600000    54.89000000
   O     16.55000000   107.23600000    52.24000000
   H     16.21000000   106.34600000    52.18000000
   H     17.48000000   107.15600000    52.02000000
   O     16.29000000   110.30600000    53.53000000
   H     16.30000000   111.26600000    53.59000000
   H     17.16000000   110.03600000    53.82000000

Ca 1.00



