%chk=loop2.apoCaM-CA-Ng.Init295.run42.water5.chk
%nprocshared=20
%mem=10GB
%nosave
#b3lyp/svp scf=(tight,noincore,xqc) Test 
#IOP(5/87=12) Density=Current Pop=(MK,readradii) iop(6/33=2) iop(6/42=6)

loop2.apoCaM-CA-Ng.Init295.run42.water5 

   -2  1 
   C     92.48000000    44.37000000    33.41000000
   C     93.96000000    44.35000000    33.74000000
   O     94.74000000    44.93000000    32.98000000
   H     91.96300000    45.03500000    34.10200000
   H     92.33900000    44.72800000    32.39000000
   H     92.07300000    43.36300000    33.50200000
   N     94.35000000    43.70000000    34.84000000
   C     95.70000000    43.63000000    35.36000000
   C     96.14000000    44.93000000    36.03000000
   O     96.89000000    44.90000000    37.00000000
   C     96.02000000    42.36000000    36.14000000
   C     95.87000000    41.09000000    35.31000000
   O     95.92000000    39.97000000    35.87000000
   O     95.90000000    41.15000000    34.07000000
   H     93.62000000    43.32000000    35.43000000
   H     96.31000000    43.61000000    34.45000000
   H     95.42000000    42.27000000    37.04000000
   H     97.08000000    42.51000000    36.36000000
   N     95.77000000    46.10000000    35.51000000
   C     96.42000000    47.36000000    35.82000000
   C     95.52000000    48.47000000    35.30000000
   O     94.84000000    48.22000000    34.31000000
   C     97.81000000    47.39000000    35.20000000
   H     95.22000000    46.10000000    34.66000000
   H     96.62000000    47.42000000    36.89000000
   H     98.39000000    46.53000000    35.55000000
   H     97.88000000    47.28000000    34.11000000
   H     98.40000000    48.23000000    35.54000000
   N     95.68000000    49.68000000    35.85000000
   C     96.56000000    50.13000000    36.91000000
   C     95.81000000    50.19000000    38.24000000
   O     94.59000000    50.05000000    38.27000000
   C     97.20000000    51.48000000    36.59000000
   C     97.65000000    51.65000000    35.15000000
   O     98.86000000    51.47000000    34.89000000
   O     96.81000000    51.96000000    34.27000000
   H     95.35000000    50.48000000    35.34000000
   H     97.31000000    49.34000000    36.97000000
   H     98.07000000    51.43000000    37.25000000
   H     96.46000000    52.25000000    36.80000000
   N     96.52000000    50.29000000    39.36000000
   C     96.04000000    50.21000000    40.72000000
   C     95.83000000    48.76000000    41.15000000
   O     96.54000000    47.87000000    40.69000000
   H     97.52000000    50.32000000    39.21000000
   H     95.03000000    50.63000000    40.67000000
   H     96.63000000    50.77000000    41.45000000
   N     94.75000000    48.39000000    41.84000000
   C     93.79000000    49.15000000    42.62000000
   C     92.62000000    49.76000000    41.85000000
   O     91.77000000    50.38000000    42.49000000
   C     93.25000000    48.37000000    43.82000000
   C     94.29000000    47.89000000    44.82000000
   N     94.76000000    48.81000000    45.66000000
   O     94.69000000    46.74000000    44.96000000
   H     94.76000000    47.39000000    41.95000000
   H     94.44000000    49.92000000    43.03000000
   H     92.63000000    47.62000000    43.34000000
   H     92.63000000    48.98000000    44.48000000
   H     94.67000000    49.81000000    45.51000000
   H     95.32000000    48.49000000    46.44000000
   N     92.50000000    49.54000000    40.54000000
   C     91.39000000    49.89000000    39.68000000
   C     91.28000000    51.38000000    39.35000000
   O     90.24000000    51.97000000    39.64000000
   H     93.32000000    49.14000000    40.11000000
   H     90.42000000    49.64000000    40.12000000
   H     91.52000000    49.34000000    38.75000000
   N     92.36000000    51.92000000    38.80000000
   C     92.63000000    53.31000000    38.50000000
   C     92.52000000    53.41000000    36.98000000
   O     93.52000000    53.46000000    36.26000000
   C     93.98000000    53.81000000    39.00000000
   C     94.43000000    55.21000000    38.61000000
   O     94.00000000    53.78000000    40.41000000
   H     93.14000000    51.34000000    38.51000000
   H     91.78000000    53.89000000    38.88000000
   H     94.75000000    53.09000000    38.74000000
   H     94.93000000    53.78000000    40.65000000
   H     95.37000000    55.52000000    39.08000000
   H     94.54000000    55.27000000    37.52000000
   H     93.72000000    55.96000000    38.94000000
   N     91.28000000    53.38000000    36.49000000
   C     90.91000000    53.28000000    35.10000000
   C     90.20000000    54.59000000    34.78000000
   O     89.92000000    55.37000000    35.69000000
   C     90.13000000    52.00000000    34.80000000
   C     90.78000000    50.66000000    35.13000000
   C     88.83000000    52.07000000    35.59000000
   C     92.05000000    50.33000000    34.37000000
   H     90.52000000    53.53000000    37.15000000
   H     91.85000000    53.37000000    34.55000000
   H     89.95000000    51.97000000    33.72000000
   H     90.17000000    49.80000000    34.87000000
   H     90.99000000    50.56000000    36.20000000
   H     89.00000000    52.05000000    36.66000000
   H     88.30000000    52.99000000    35.34000000
   H     88.23000000    51.20000000    35.32000000
   H     92.84000000    51.05000000    34.60000000
   H     92.37000000    49.30000000    34.50000000
   H     91.73000000    50.28000000    33.33000000
   N     89.80000000    54.87000000    33.53000000
   C     89.45000000    56.22000000    33.12000000
   C     88.58000000    56.21000000    31.87000000
   O     88.86000000    55.50000000    30.91000000
   C     90.66000000    57.08000000    32.78000000
   C     91.90000000    56.31000000    32.36000000
   O     92.74000000    55.98000000    33.23000000
   O     92.24000000    56.07000000    31.18000000
   H     90.22000000    54.29000000    32.83000000
   H     88.91000000    56.75000000    33.91000000
   H     90.83000000    57.76000000    33.62000000
   H     90.41000000    57.75000000    31.96000000
   N     87.45000000    56.92000000    31.90000000
   C     86.48000000    57.08000000    30.83000000
   C     85.96000000    55.71000000    30.42000000
   O     85.58000000    54.95000000    31.30000000
   C     85.35000000    57.96000000    31.33000000
   C     84.25000000    58.14000000    30.31000000
   C     83.14000000    57.28000000    30.23000000
   C     84.26000000    59.27000000    29.50000000
   C     82.14000000    57.50000000    29.28000000
   C     83.28000000    59.44000000    28.51000000
   C     82.24000000    58.52000000    28.32000000
   H     87.33000000    57.61000000    32.63000000
   H     86.99000000    57.60000000    30.02000000
   H     85.66000000    58.96000000    31.65000000
   H     84.94000000    57.54000000    32.25000000
   H     82.99000000    56.43000000    30.88000000
   H     85.09000000    59.96000000    29.58000000
   H     81.27000000    56.87000000    29.18000000
   H     83.37000000    60.25000000    27.80000000
   H     81.47000000    58.58000000    27.57000000
   N     85.93000000    55.29000000    29.15000000
   C     85.24000000    54.10000000    28.69000000
   C     85.77000000    52.77000000    29.22000000
   O     85.10000000    51.76000000    29.02000000
   C     85.00000000    54.30000000    27.19000000
   C     85.05000000    55.83000000    27.08000000
   C     86.20000000    56.16000000    28.03000000
   H     84.25000000    54.22000000    29.12000000
   H     85.87000000    53.89000000    26.69000000
   H     84.10000000    53.76000000    26.91000000
   H     85.35000000    56.06000000    26.06000000
   H     84.20000000    56.35000000    27.53000000
   H     87.12000000    55.85000000    27.54000000
   H     86.18000000    57.22000000    28.29000000
   N     86.89000000    52.75000000    29.94000000
   C     87.61000000    51.61000000    30.46000000
   C     86.81000000    50.87000000    31.52000000
   O     86.88000000    49.64000000    31.58000000
   C     88.96000000    52.09000000    30.97000000
   C     89.92000000    52.53000000    29.86000000
   C     91.23000000    53.05000000    30.43000000
   O     92.22000000    53.03000000    29.67000000
   O     91.30000000    53.48000000    31.60000000
   H     87.32000000    53.66000000    30.05000000
   H     87.77000000    50.94000000    29.62000000
   H     89.46000000    51.26000000    31.46000000
   H     88.87000000    52.90000000    31.70000000
   H     89.41000000    53.30000000    29.27000000
   H     90.14000000    51.73000000    29.16000000
   N     86.07000000    51.65000000    32.32000000
   C     84.98000000    51.05000000    33.07000000
   H     84.09500000    50.98700000    32.43600000
   H     85.26800000    50.04900000    33.39200000
   H     84.75800000    51.66400000    33.94300000
   H     86.26000000    52.64000000    32.30000000
  Ca     93.95000000    54.22000000    31.40000000
   O     96.64000000    53.37000000    31.67000000
   H     96.65000000    52.92000000    32.51000000
   H     97.09000000    52.76000000    31.07000000
   O     94.68000000    53.46000000    33.84000000
   H     94.36000000    53.50000000    34.74000000
   H     95.55000000    53.06000000    33.91000000
   O     94.38000000    51.64000000    30.97000000
   H     95.10000000    51.01000000    30.92000000
   H     93.60000000    51.10000000    31.07000000
   O     94.64000000    54.50000000    28.87000000
   H     95.26000000    54.03000000    28.30000000
   H     94.55000000    55.36000000    28.47000000
   O     95.35000000    56.36000000    31.70000000
   H     95.18000000    57.27000000    31.45000000
   H     95.55000000    56.39000000    32.63000000

Ca 1.00



