%chk=loop2.apoCaM-CA-Ng.Init295.run43.water5.chk
%nprocshared=20
%mem=10GB
%nosave
#b3lyp/svp scf=(tight,noincore,xqc) Test 
#IOP(5/87=12) Density=Current Pop=(MK,readradii) iop(6/33=2) iop(6/42=6)

loop2.apoCaM-CA-Ng.Init295.run43.water5 

   -2  1 
   C     86.87000000    56.56000000    27.84000000
   C     88.37000000    56.71000000    28.01000000
   O     89.05000000    57.03000000    27.03000000
   H     86.39700000    57.53900000    27.91600000
   H     86.65600000    56.12800000    26.86200000
   H     86.47900000    55.90600000    28.62000000
   N     88.97000000    56.55000000    29.19000000
   C     90.36000000    56.67000000    29.60000000
   C     90.69000000    58.13000000    29.88000000
   O     91.35000000    58.44000000    30.86000000
   C     90.45000000    55.64000000    30.72000000
   C     91.93000000    55.33000000    30.95000000
   O     92.20000000    54.87000000    32.08000000
   O     92.87000000    55.77000000    30.26000000
   H     88.40000000    56.06000000    29.86000000
   H     90.86000000    56.31000000    28.70000000
   H     89.93000000    54.72000000    30.48000000
   H     89.94000000    55.91000000    31.64000000
   N     90.29000000    59.01000000    28.95000000
   C     90.56000000    60.42000000    29.10000000
   C     89.40000000    61.33000000    28.71000000
   O     88.63000000    60.89000000    27.86000000
   C     91.95000000    60.72000000    28.53000000
   H     89.67000000    58.78000000    28.19000000
   H     90.66000000    60.61000000    30.17000000
   H     92.40000000    61.65000000    28.86000000
   H     92.67000000    59.91000000    28.69000000
   H     91.87000000    60.81000000    27.45000000
   N     89.10000000    62.48000000    29.32000000
   C     89.86000000    63.21000000    30.31000000
   C     89.35000000    62.84000000    31.69000000
   O     88.58000000    61.91000000    31.91000000
   C     89.66000000    64.71000000    30.10000000
   C     90.11000000    65.25000000    28.75000000
   O     90.97000000    64.68000000    28.05000000
   O     89.69000000    66.39000000    28.46000000
   H     88.23000000    62.85000000    28.98000000
   H     90.91000000    63.00000000    30.10000000
   H     90.10000000    65.35000000    30.87000000
   H     88.57000000    64.79000000    30.17000000
   N     89.88000000    63.45000000    32.76000000
   C     89.73000000    63.13000000    34.16000000
   C     90.07000000    61.70000000    34.54000000
   O     91.06000000    61.19000000    34.03000000
   H     90.64000000    64.10000000    32.61000000
   H     88.75000000    63.44000000    34.54000000
   H     90.45000000    63.75000000    34.70000000
   N     89.35000000    60.99000000    35.41000000
   C     88.22000000    61.47000000    36.18000000
   C     86.86000000    61.59000000    35.50000000
   O     85.88000000    61.94000000    36.14000000
   C     88.09000000    60.52000000    37.36000000
   C     89.35000000    60.32000000    38.20000000
   N     89.45000000    61.06000000    39.31000000
   O     90.26000000    59.58000000    37.85000000
   H     89.86000000    60.19000000    35.76000000
   H     88.46000000    62.47000000    36.56000000
   H     87.91000000    59.51000000    36.98000000
   H     87.22000000    60.80000000    37.96000000
   H     88.84000000    61.86000000    39.43000000
   H     90.17000000    60.82000000    39.97000000
   N     86.76000000    61.31000000    34.19000000
   C     85.51000000    61.53000000    33.49000000
   C     85.23000000    63.02000000    33.41000000
   O     84.17000000    63.46000000    33.86000000
   H     87.57000000    61.06000000    33.65000000
   H     84.69000000    61.03000000    34.01000000
   H     85.59000000    61.15000000    32.47000000
   N     86.07000000    63.81000000    32.74000000
   C     85.95000000    65.25000000    32.66000000
   C     85.51000000    65.54000000    31.23000000
   O     86.32000000    65.91000000    30.38000000
   C     87.21000000    65.98000000    33.11000000
   C     87.01000000    67.48000000    33.24000000
   O     87.66000000    65.60000000    34.40000000
   H     86.98000000    63.46000000    32.46000000
   H     85.14000000    65.63000000    33.28000000
   H     88.09000000    65.84000000    32.48000000
   H     88.55000000    65.97000000    34.47000000
   H     87.01000000    68.01000000    32.29000000
   H     86.24000000    67.83000000    33.93000000
   H     87.91000000    67.82000000    33.76000000
   N     84.20000000    65.42000000    31.06000000
   C     83.58000000    65.21000000    29.76000000
   C     82.40000000    66.14000000    29.50000000
   O     81.83000000    66.68000000    30.45000000
   C     83.07000000    63.77000000    29.64000000
   C     84.18000000    62.78000000    29.93000000
   C     81.99000000    63.36000000    30.64000000
   C     85.22000000    62.71000000    28.82000000
   H     83.62000000    65.13000000    31.83000000
   H     84.23000000    65.41000000    28.92000000
   H     82.80000000    63.66000000    28.59000000
   H     83.78000000    61.76000000    29.93000000
   H     84.62000000    62.95000000    30.92000000
   H     82.23000000    63.59000000    31.68000000
   H     81.05000000    63.85000000    30.37000000
   H     81.74000000    62.30000000    30.58000000
   H     84.76000000    63.01000000    27.87000000
   H     85.92000000    63.54000000    28.95000000
   H     85.70000000    61.74000000    28.77000000
   N     82.08000000    66.36000000    28.23000000
   C     81.23000000    67.43000000    27.77000000
   C     80.25000000    66.80000000    26.78000000
   O     80.66000000    66.02000000    25.93000000
   C     82.08000000    68.52000000    27.12000000
   C     83.35000000    68.15000000    26.38000000
   O     84.35000000    68.21000000    27.12000000
   O     83.41000000    67.85000000    25.17000000
   H     82.53000000    65.79000000    27.52000000
   H     80.64000000    67.97000000    28.51000000
   H     82.34000000    69.23000000    27.91000000
   H     81.49000000    69.22000000    26.52000000
   N     78.99000000    67.23000000    26.90000000
   C     77.90000000    66.77000000    26.06000000
   C     77.73000000    65.27000000    25.90000000
   O     77.62000000    64.59000000    26.92000000
   C     76.55000000    67.31000000    26.52000000
   C     75.35000000    66.85000000    25.71000000
   C     74.74000000    65.63000000    26.02000000
   C     75.05000000    67.53000000    24.52000000
   C     73.84000000    65.04000000    25.12000000
   C     74.06000000    67.00000000    23.68000000
   C     73.41000000    65.82000000    24.04000000
   H     78.82000000    67.96000000    27.58000000
   H     78.08000000    67.19000000    25.07000000
   H     76.72000000    68.38000000    26.64000000
   H     76.37000000    66.88000000    27.50000000
   H     75.06000000    65.07000000    26.88000000
   H     75.57000000    68.41000000    24.21000000
   H     73.36000000    64.10000000    25.37000000
   H     73.73000000    67.60000000    22.84000000
   H     72.55000000    65.43000000    23.52000000
   N     77.74000000    64.72000000    24.68000000
   C     77.38000000    63.34000000    24.43000000
   C     78.43000000    62.31000000    24.81000000
   O     78.18000000    61.11000000    24.78000000
   C     77.11000000    63.22000000    22.93000000
   C     77.66000000    64.50000000    22.30000000
   C     78.00000000    65.44000000    23.45000000
   H     76.48000000    63.10000000    25.01000000
   H     77.71000000    62.43000000    22.49000000
   H     76.04000000    63.15000000    22.74000000
   H     78.58000000    64.30000000    21.75000000
   H     76.93000000    65.06000000    21.72000000
   H     79.05000000    65.70000000    23.44000000
   H     77.40000000    66.35000000    23.50000000
   N     79.61000000    62.70000000    25.30000000
   C     80.74000000    61.96000000    25.84000000
   C     80.38000000    61.20000000    27.11000000
   O     80.89000000    60.11000000    27.37000000
   C     81.97000000    62.81000000    26.16000000
   C     82.71000000    63.35000000    24.95000000
   C     83.70000000    64.49000000    25.14000000
   O     84.39000000    64.77000000    24.13000000
   O     83.95000000    65.03000000    26.24000000
   H     79.90000000    63.65000000    25.16000000
   H     81.05000000    61.30000000    25.03000000
   H     82.67000000    62.23000000    26.76000000
   H     81.67000000    63.60000000    26.85000000
   H     81.89000000    63.79000000    24.37000000
   H     83.27000000    62.55000000    24.46000000
   N     79.32000000    61.64000000    27.80000000
   C     78.70000000    60.84000000    28.84000000
   H     77.69800000    60.54900000    28.52500000
   H     79.29800000    59.94600000    29.01700000
   H     78.63600000    61.42300000    29.75900000
   H     78.97000000    62.56000000    27.59000000
  Ca     85.78000000    66.66000000    25.32000000
   O     87.19000000    64.34000000    25.19000000
   H     86.91000000    63.49000000    25.54000000
   H     88.07000000    64.18000000    24.85000000
   O     88.32000000    67.05000000    24.77000000
   H     89.04000000    67.32000000    25.34000000
   H     88.54000000    67.42000000    23.92000000
   O     86.67000000    69.15000000    25.78000000
   H     86.78000000    69.55000000    26.65000000
   H     86.48000000    69.88000000    25.20000000
   O     86.89000000    66.15000000    27.67000000
   H     86.47000000    66.11000000    28.53000000
   H     87.79000000    66.42000000    27.85000000
   O     85.83000000    67.14000000    22.71000000
   H     85.67000000    67.93000000    22.20000000
   H     85.67000000    66.41000000    22.11000000

Ca 1.00



