%chk=loop2.holoCaM-CaMKII.run31.water2.chk
%nprocshared=20
%mem=10GB
%nosave
#b3lyp/svp scf=(tight,noincore,xqc) Test 
#IOP(5/87=12) Density=Current Pop=(MK,readradii) iop(6/33=2) iop(6/42=6)

loop2.holoCaM-CaMKII.run31.water2 

   -2  1 
   C     70.33000000    61.61000000    16.86000000
   C     70.72000000    62.34000000    15.59000000
   O     71.83000000    62.86000000    15.49000000
   H     69.30500000    61.25000000    16.77100000
   H     71.00000000    60.76400000    17.01400000
   H     70.40300000    62.29100000    17.70800000
   N     69.93000000    62.28000000    14.51000000
   C     70.27000000    62.94000000    13.27000000
   C     70.31000000    64.46000000    13.34000000
   O     69.45000000    65.16000000    13.87000000
   C     69.34000000    62.42000000    12.18000000
   C     69.68000000    62.84000000    10.76000000
   O     68.74000000    63.37000000    10.12000000
   O     70.88000000    62.68000000    10.44000000
   H     69.02000000    61.84000000    14.52000000
   H     71.26000000    62.67000000    12.90000000
   H     68.32000000    62.79000000    12.31000000
   H     69.29000000    61.33000000    12.18000000
   N     71.21000000    65.03000000    12.53000000
   C     71.28000000    66.44000000    12.22000000
   C     71.68000000    66.70000000    10.77000000
   O     72.24000000    67.74000000    10.45000000
   C     72.14000000    67.20000000    13.23000000
   H     71.85000000    64.36000000    12.13000000
   H     70.32000000    66.91000000    12.41000000
   H     72.00000000    68.28000000    13.10000000
   H     71.73000000    66.82000000    14.17000000
   H     73.20000000    66.95000000    13.14000000
   N     71.45000000    65.79000000     9.82000000
   C     71.65000000    66.12000000     8.42000000
   C     70.85000000    65.31000000     7.41000000
   O     70.70000000    65.88000000     6.34000000
   C     73.13000000    65.98000000     8.03000000
   C     73.85000000    64.71000000     8.43000000
   O     73.24000000    63.62000000     8.50000000
   O     75.00000000    64.82000000     8.92000000
   H     71.01000000    64.90000000    10.00000000
   H     71.33000000    67.15000000     8.27000000
   H     73.63000000    66.87000000     8.43000000
   H     73.21000000    66.18000000     6.96000000
   N     70.26000000    64.17000000     7.78000000
   C     69.38000000    63.39000000     6.94000000
   C     70.18000000    62.66000000     5.87000000
   O     69.59000000    62.46000000     4.81000000
   H     70.32000000    63.97000000     8.77000000
   H     68.77000000    64.17000000     6.47000000
   H     68.92000000    62.66000000     7.60000000
   N     71.48000000    62.38000000     5.95000000
   C     72.25000000    61.55000000     5.04000000
   C     72.04000000    60.05000000     5.09000000
   O     72.67000000    59.28000000     4.36000000
   C     73.73000000    61.87000000     5.23000000
   C     74.38000000    61.34000000     6.50000000
   N     75.69000000    61.46000000     6.70000000
   O     73.67000000    60.85000000     7.39000000
   H     72.00000000    62.73000000     6.74000000
   H     71.92000000    61.86000000     4.05000000
   H     73.92000000    62.94000000     5.26000000
   H     74.32000000    61.50000000     4.40000000
   H     76.23000000    61.81000000     5.92000000
   H     76.07000000    61.25000000     7.61000000
   N     71.02000000    59.62000000     5.84000000
   C     70.49000000    58.28000000     5.92000000
   C     71.40000000    57.25000000     6.58000000
   O     71.24000000    56.04000000     6.49000000
   H     70.65000000    60.27000000     6.52000000
   H     70.27000000    58.00000000     4.89000000
   H     69.51000000    58.21000000     6.40000000
   N     72.40000000    57.73000000     7.32000000
   C     73.36000000    56.94000000     8.07000000
   C     73.85000000    57.61000000     9.35000000
   O     73.79000000    58.84000000     9.41000000
   C     74.59000000    56.58000000     7.24000000
   C     74.22000000    55.62000000     6.12000000
   O     75.17000000    57.77000000     6.74000000
   H     72.32000000    58.72000000     7.50000000
   H     72.87000000    56.03000000     8.40000000
   H     75.32000000    56.19000000     7.95000000
   H     75.27000000    58.47000000     7.38000000
   H     73.59000000    54.79000000     6.45000000
   H     73.70000000    56.11000000     5.29000000
   H     75.14000000    55.14000000     5.80000000
   N     74.33000000    56.89000000    10.36000000
   C     74.92000000    57.43000000    11.56000000
   C     76.33000000    57.93000000    11.26000000
   O     77.14000000    57.19000000    10.72000000
   C     75.03000000    56.40000000    12.69000000
   C     73.67000000    55.76000000    12.92000000
   C     75.53000000    57.09000000    13.95000000
   C     73.59000000    54.68000000    14.00000000
   H     74.11000000    55.91000000    10.23000000
   H     74.41000000    58.34000000    11.88000000
   H     75.67000000    55.57000000    12.39000000
   H     73.26000000    55.32000000    12.00000000
   H     72.96000000    56.52000000    13.23000000
   H     76.58000000    57.34000000    13.87000000
   H     74.89000000    57.89000000    14.34000000
   H     75.60000000    56.37000000    14.77000000
   H     74.00000000    54.89000000    14.99000000
   H     72.55000000    54.36000000    14.08000000
   H     74.03000000    53.78000000    13.57000000
   N     76.56000000    59.20000000    11.61000000
   C     77.86000000    59.85000000    11.58000000
   C     78.56000000    59.75000000    12.93000000
   O     77.89000000    59.33000000    13.87000000
   C     77.71000000    61.31000000    11.17000000
   C     77.07000000    61.51000000     9.80000000
   O     75.82000000    61.42000000     9.70000000
   O     77.76000000    61.81000000     8.81000000
   H     75.80000000    59.70000000    12.04000000
   H     78.50000000    59.32000000    10.88000000
   H     78.65000000    61.84000000    11.03000000
   H     77.12000000    61.85000000    11.91000000
   N     79.89000000    59.86000000    13.03000000
   C     80.56000000    59.59000000    14.28000000
   C     80.24000000    60.57000000    15.41000000
   O     80.01000000    60.11000000    16.52000000
   C     82.06000000    59.43000000    14.03000000
   C     82.79000000    59.20000000    15.34000000
   C     83.65000000    60.20000000    15.80000000
   C     82.68000000    58.03000000    16.09000000
   C     84.25000000    60.15000000    17.06000000
   C     83.30000000    57.93000000    17.35000000
   C     83.99000000    59.03000000    17.86000000
   H     80.46000000    60.06000000    12.22000000
   H     80.26000000    58.60000000    14.60000000
   H     82.41000000    60.33000000    13.53000000
   H     82.14000000    58.56000000    13.38000000
   H     83.70000000    61.16000000    15.32000000
   H     82.05000000    57.27000000    15.65000000
   H     84.70000000    61.02000000    17.52000000
   H     82.97000000    57.10000000    17.95000000
   H     84.21000000    59.13000000    18.91000000
   N     80.06000000    61.87000000    15.16000000
   C     79.45000000    62.76000000    16.13000000
   C     77.98000000    62.55000000    16.44000000
   O     77.47000000    63.23000000    17.33000000
   C     79.56000000    64.19000000    15.60000000
   C     80.76000000    64.14000000    14.66000000
   C     80.65000000    62.71000000    14.14000000
   H     80.09000000    62.70000000    17.02000000
   H     78.72000000    64.48000000    14.98000000
   H     79.63000000    64.92000000    16.41000000
   H     80.73000000    64.85000000    13.83000000
   H     81.67000000    64.18000000    15.26000000
   H     79.93000000    62.75000000    13.32000000
   H     81.59000000    62.34000000    13.74000000
   N     77.25000000    61.71000000    15.71000000
   C     75.90000000    61.29000000    16.04000000
   C     75.89000000    59.96000000    16.78000000
   O     75.11000000    59.69000000    17.69000000
   C     75.21000000    61.17000000    14.68000000
   C     75.00000000    62.49000000    13.96000000
   C     74.18000000    62.25000000    12.70000000
   O     73.77000000    63.20000000    12.00000000
   O     73.99000000    61.06000000    12.37000000
   H     77.74000000    61.26000000    14.96000000
   H     75.40000000    62.12000000    16.54000000
   H     74.28000000    60.64000000    14.88000000
   H     75.71000000    60.49000000    13.99000000
   H     75.97000000    62.85000000    13.63000000
   H     74.48000000    63.21000000    14.61000000
   N     76.92000000    59.13000000    16.62000000
   C     77.27000000    58.13000000    17.61000000
   H     78.14100000    58.46600000    18.17200000
   H     76.43200000    57.98400000    18.29200000
   H     77.50100000    57.18900000    17.11100000
   H     77.62000000    59.30000000    15.90000000
  Ca     73.32000000    61.47000000     9.92000000
   O     71.59000000    59.95000000    11.74000000
   H     72.39000000    60.15000000    12.24000000
   H     70.94000000    59.74000000    12.41000000
   O     70.93000000    60.64000000     8.65000000
   H     70.17000000    60.07000000     8.53000000
   H     70.61000000    61.34000000     9.22000000

Ca 1.00



