%chk=loop2.apoCaM-CA-Ng.Init295.run31.water3.chk
%nprocshared=20
%mem=10GB
%nosave
#b3lyp/svp scf=(tight,noincore,xqc) Test 
#IOP(5/87=12) Density=Current Pop=(MK,readradii) iop(6/33=2) iop(6/42=6)

loop2.apoCaM-CA-Ng.Init295.run31.water3 

   -2  1 
   C     89.55000000    76.30000000    59.15000000
   C     90.98000000    76.23000000    58.65000000
   O     91.36000000    77.12000000    57.89000000
   H     88.88800000    75.82900000    58.42300000
   H     89.47200000    75.77700000    60.10300000
   H     89.26100000    77.34300000    59.28200000
   N     91.77000000    75.22000000    59.02000000
   C     93.19000000    75.01000000    58.85000000
   C     94.01000000    75.92000000    59.75000000
   O     94.74000000    75.42000000    60.60000000
   C     93.55000000    73.54000000    59.04000000
   C     94.93000000    73.20000000    58.51000000
   O     95.62000000    72.36000000    59.13000000
   O     95.35000000    73.91000000    57.57000000
   H     91.33000000    74.46000000    59.51000000
   H     93.43000000    75.26000000    57.82000000
   H     92.85000000    72.96000000    58.44000000
   H     93.39000000    73.07000000    60.01000000
   N     93.89000000    77.23000000    59.50000000
   C     94.76000000    78.22000000    60.11000000
   C     93.94000000    79.42000000    60.57000000
   O     92.98000000    79.81000000    59.91000000
   C     95.71000000    78.72000000    59.03000000
   H     93.20000000    77.48000000    58.81000000
   H     95.35000000    77.79000000    60.92000000
   H     96.43000000    79.44000000    59.42000000
   H     96.26000000    77.91000000    58.54000000
   H     95.22000000    79.11000000    58.14000000
   N     94.31000000    80.22000000    61.57000000
   C     95.59000000    80.18000000    62.24000000
   C     95.70000000    79.13000000    63.34000000
   O     94.68000000    78.58000000    63.74000000
   C     95.92000000    81.56000000    62.81000000
   C     95.80000000    82.68000000    61.78000000
   O     94.99000000    83.62000000    61.96000000
   O     96.55000000    82.84000000    60.80000000
   H     93.77000000    81.05000000    61.75000000
   H     96.43000000    80.04000000    61.56000000
   H     96.96000000    81.56000000    63.12000000
   H     95.27000000    81.77000000    63.66000000
   N     96.93000000    78.73000000    63.67000000
   C     97.31000000    77.60000000    64.50000000
   C     96.93000000    76.29000000    63.83000000
   O     96.98000000    76.14000000    62.61000000
   H     97.63000000    79.26000000    63.16000000
   H     96.90000000    77.71000000    65.51000000
   H     98.38000000    77.68000000    64.69000000
   N     96.64000000    75.30000000    64.67000000
   C     96.70000000    75.13000000    66.11000000
   C     95.51000000    75.81000000    66.77000000
   O     95.53000000    76.03000000    67.98000000
   C     96.69000000    73.65000000    66.51000000
   C     97.87000000    72.90000000    65.93000000
   N     97.52000000    71.85000000    65.18000000
   O     99.05000000    73.26000000    66.00000000
   H     96.58000000    74.42000000    64.19000000
   H     97.56000000    75.72000000    66.42000000
   H     95.73000000    73.30000000    66.13000000
   H     96.67000000    73.63000000    67.60000000
   H     96.57000000    71.50000000    65.19000000
   H     98.27000000    71.25000000    64.87000000
   N     94.50000000    76.17000000    65.98000000
   C     93.25000000    76.79000000    66.38000000
   C     93.42000000    78.16000000    67.02000000
   O     93.03000000    78.37000000    68.17000000
   H     94.60000000    75.99000000    64.99000000
   H     92.70000000    76.10000000    67.01000000
   H     92.65000000    76.97000000    65.49000000
   N     94.05000000    79.14000000    66.36000000
   C     94.39000000    80.41000000    66.98000000
   C     93.40000000    81.49000000    66.56000000
   O     93.86000000    82.59000000    66.27000000
   C     95.86000000    80.79000000    66.86000000
   C     96.42000000    81.88000000    67.78000000
   O     96.68000000    79.66000000    67.05000000
   H     94.54000000    78.85000000    65.53000000
   H     94.25000000    80.21000000    68.04000000
   H     95.97000000    81.11000000    65.83000000
   H     97.61000000    79.76000000    66.86000000
   H     96.13000000    81.73000000    68.82000000
   H     97.50000000    81.97000000    67.74000000
   H     95.99000000    82.84000000    67.52000000
   N     92.10000000    81.16000000    66.58000000
   C     90.98000000    81.95000000    66.10000000
   C     90.44000000    82.96000000    67.09000000
   O     90.61000000    82.99000000    68.31000000
   C     89.87000000    81.08000000    65.52000000
   C     90.29000000    80.49000000    64.18000000
   C     89.43000000    79.95000000    66.45000000
   C     91.54000000    79.63000000    64.04000000
   H     91.90000000    80.33000000    67.11000000
   H     91.40000000    82.52000000    65.27000000
   H     89.03000000    81.76000000    65.37000000
   H     90.36000000    81.27000000    63.42000000
   H     89.39000000    79.96000000    63.87000000
   H     89.03000000    80.33000000    67.39000000
   H     88.65000000    79.43000000    65.90000000
   H     90.23000000    79.21000000    66.54000000
   H     91.57000000    79.13000000    63.07000000
   H     92.41000000    80.29000000    64.08000000
   H     91.62000000    78.82000000    64.77000000
   N     89.67000000    83.94000000    66.61000000
   C     89.09000000    85.03000000    67.36000000
   C     87.81000000    85.61000000    66.78000000
   O     87.68000000    85.60000000    65.56000000
   C     90.10000000    86.16000000    67.59000000
   C     90.85000000    86.51000000    66.32000000
   O     92.05000000    86.17000000    66.22000000
   O     90.37000000    87.29000000    65.47000000
   H     89.56000000    84.04000000    65.61000000
   H     88.83000000    84.68000000    68.36000000
   H     90.85000000    85.94000000    68.34000000
   H     89.65000000    87.07000000    68.00000000
   N     86.86000000    86.18000000    67.53000000
   C     85.64000000    86.70000000    66.94000000
   C     84.81000000    85.65000000    66.20000000
   O     84.71000000    84.52000000    66.67000000
   C     84.82000000    87.25000000    68.11000000
   C     83.51000000    87.87000000    67.69000000
   C     82.37000000    87.07000000    67.86000000
   C     83.38000000    89.24000000    67.44000000
   C     81.10000000    87.57000000    67.56000000
   C     82.11000000    89.78000000    67.22000000
   C     80.98000000    88.95000000    67.35000000
   H     87.06000000    86.33000000    68.50000000
   H     85.84000000    87.55000000    66.29000000
   H     85.48000000    87.99000000    68.57000000
   H     84.58000000    86.47000000    68.83000000
   H     82.51000000    86.03000000    68.10000000
   H     84.27000000    89.84000000    67.47000000
   H     80.27000000    86.88000000    67.66000000
   H     82.04000000    90.83000000    66.97000000
   H     80.01000000    89.42000000    67.32000000
   N     84.29000000    85.89000000    65.00000000
   C     83.58000000    84.93000000    64.18000000
   C     84.52000000    83.91000000    63.55000000
   O     84.04000000    82.87000000    63.10000000
   C     82.74000000    85.75000000    63.21000000
   C     83.28000000    87.17000000    63.37000000
   C     84.48000000    87.16000000    64.31000000
   H     82.88000000    84.38000000    64.80000000
   H     82.97000000    85.37000000    62.21000000
   H     81.66000000    85.75000000    63.38000000
   H     83.41000000    87.52000000    62.34000000
   H     82.51000000    87.81000000    63.81000000
   H     85.41000000    87.18000000    63.75000000
   H     84.39000000    88.03000000    64.95000000
   N     85.84000000    84.02000000    63.68000000
   C     86.70000000    83.05000000    63.03000000
   C     86.58000000    81.70000000    63.71000000
   O     87.02000000    80.72000000    63.12000000
   C     88.16000000    83.51000000    63.11000000
   C     88.57000000    84.81000000    62.42000000
   C     89.99000000    85.24000000    62.75000000
   O     90.76000000    84.65000000    63.54000000
   O     90.39000000    86.33000000    62.28000000
   H     86.22000000    84.88000000    64.03000000
   H     86.54000000    82.91000000    61.96000000
   H     88.78000000    82.72000000    62.69000000
   H     88.42000000    83.55000000    64.17000000
   H     87.81000000    85.51000000    62.76000000
   H     88.38000000    84.72000000    61.35000000
   N     85.98000000    81.50000000    64.89000000
   C     85.81000000    80.17000000    65.43000000
   H     84.81600000    79.80100000    65.17900000
   H     86.56200000    79.50600000    65.00500000
   H     85.92200000    80.20000000    66.51400000
   H     85.58000000    82.34000000    65.30000000
  Ca     92.36000000    86.86000000    63.84000000
   O     93.76000000    84.65000000    64.23000000
   H     93.88000000    84.05000000    64.96000000
   H     94.40000000    84.36000000    63.58000000
   O     91.80000000    89.39000000    63.45000000
   H     90.91000000    89.68000000    63.23000000
   H     92.17000000    90.12000000    63.95000000
   O     93.50000000    86.00000000    61.54000000
   H     93.66000000    86.38000000    60.68000000
   H     94.06000000    85.22000000    61.57000000

Ca 1.00



