%chk=loop2.apoCaM-CA-Ng.Init293.run81.water6.chk
%nprocshared=20
%mem=10GB
%nosave
#b3lyp/svp scf=(tight,noincore,xqc) Test 
#IOP(5/87=12) Density=Current Pop=(MK,readradii) iop(6/33=2) iop(6/42=6)

loop2.apoCaM-CA-Ng.Init293.run81.water6 

   -2  1 
   C     72.52000000    82.60000000    27.09000000
   C     73.22000000    83.74000000    26.37000000
   O     72.66000000    84.81000000    26.20000000
   H     71.53600000    82.44200000    26.64900000
   H     73.11100000    81.69000000    26.99200000
   H     72.40900000    82.85000000    28.14500000
   N     74.42000000    83.49000000    25.83000000
   C     75.12000000    84.50000000    25.05000000
   C     74.43000000    84.99000000    23.79000000
   O     74.78000000    86.07000000    23.32000000
   C     76.45000000    83.83000000    24.70000000
   C     77.46000000    84.78000000    24.07000000
   O     77.74000000    85.85000000    24.65000000
   O     78.04000000    84.39000000    23.03000000
   H     74.82000000    82.59000000    26.03000000
   H     75.45000000    85.31000000    25.69000000
   H     76.19000000    82.99000000    24.06000000
   H     76.91000000    83.43000000    25.60000000
   N     73.59000000    84.15000000    23.17000000
   C     72.72000000    84.37000000    22.04000000
   C     71.92000000    85.65000000    22.22000000
   O     71.87000000    86.45000000    21.29000000
   C     73.45000000    84.25000000    20.71000000
   H     73.54000000    83.24000000    23.60000000
   H     71.97000000    83.58000000    21.96000000
   H     73.86000000    83.24000000    20.67000000
   H     72.76000000    84.46000000    19.90000000
   H     74.24000000    85.00000000    20.69000000
   N     71.28000000    85.74000000    23.39000000
   C     70.20000000    86.70000000    23.50000000
   C     70.57000000    88.17000000    23.36000000
   O     69.69000000    88.98000000    23.07000000
   C     68.99000000    86.24000000    22.69000000
   C     68.71000000    84.75000000    22.80000000
   O     68.43000000    84.35000000    23.95000000
   O     68.81000000    84.02000000    21.79000000
   H     71.30000000    85.01000000    24.09000000
   H     69.84000000    86.60000000    24.53000000
   H     69.20000000    86.49000000    21.65000000
   H     68.24000000    86.80000000    23.25000000
   N     71.81000000    88.57000000    23.64000000
   C     72.28000000    89.91000000    23.38000000
   C     71.74000000    90.89000000    24.42000000
   O     71.48000000    90.53000000    25.56000000
   H     72.45000000    87.84000000    23.93000000
   H     71.98000000    90.14000000    22.35000000
   H     73.37000000    89.88000000    23.29000000
   N     71.64000000    92.18000000    24.12000000
   C     71.24000000    93.16000000    25.11000000
   C     72.08000000    93.27000000    26.38000000
   O     71.52000000    93.91000000    27.26000000
   C     69.76000000    92.95000000    25.42000000
   C     68.78000000    92.78000000    24.27000000
   N     68.74000000    91.66000000    23.55000000
   O     68.00000000    93.68000000    23.95000000
   H     71.71000000    92.53000000    23.17000000
   H     71.26000000    94.09000000    24.54000000
   H     69.36000000    93.76000000    26.02000000
   H     69.63000000    92.05000000    26.01000000
   H     69.27000000    90.80000000    23.63000000
   H     68.16000000    91.66000000    22.72000000
   N     73.28000000    92.70000000    26.53000000
   C     74.10000000    92.71000000    27.72000000
   C     74.08000000    91.36000000    28.41000000
   O     74.80000000    91.13000000    29.38000000
   H     73.65000000    92.20000000    25.73000000
   H     73.79000000    93.52000000    28.39000000
   H     75.13000000    92.95000000    27.45000000
   N     73.28000000    90.40000000    27.93000000
   C     73.28000000    89.05000000    28.46000000
   C     71.96000000    88.72000000    29.16000000
   O     70.86000000    88.93000000    28.66000000
   C     73.61000000    88.09000000    27.33000000
   C     74.82000000    88.32000000    26.43000000
   O     73.68000000    86.81000000    27.90000000
   H     72.77000000    90.55000000    27.07000000
   H     74.01000000    89.06000000    29.27000000
   H     72.75000000    88.05000000    26.66000000
   H     73.09000000    86.26000000    27.38000000
   H     75.01000000    87.45000000    25.80000000
   H     74.71000000    89.28000000    25.93000000
   H     75.74000000    88.44000000    27.01000000
   N     72.01000000    88.13000000    30.36000000
   C     70.94000000    87.48000000    31.08000000
   C     69.88000000    86.81000000    30.21000000
   O     70.12000000    85.92000000    29.40000000
   C     71.47000000    86.60000000    32.21000000
   C     71.87000000    87.44000000    33.42000000
   C     70.34000000    85.69000000    32.70000000
   C     72.86000000    86.73000000    34.35000000
   H     72.95000000    88.05000000    30.73000000
   H     70.36000000    88.21000000    31.63000000
   H     72.31000000    85.99000000    31.89000000
   H     70.96000000    87.78000000    33.90000000
   H     72.33000000    88.32000000    32.97000000
   H     70.18000000    84.87000000    32.00000000
   H     70.52000000    85.20000000    33.66000000
   H     69.45000000    86.31000000    32.81000000
   H     72.48000000    85.73000000    34.58000000
   H     73.88000000    86.76000000    33.97000000
   H     72.84000000    87.27000000    35.30000000
   N     68.64000000    87.29000000    30.38000000
   C     67.58000000    86.77000000    29.54000000
   C     66.66000000    87.89000000    29.07000000
   O     65.44000000    87.86000000    29.17000000
   C     66.80000000    85.74000000    30.36000000
   C     65.82000000    84.85000000    29.61000000
   O     66.11000000    84.68000000    28.41000000
   O     64.77000000    84.45000000    30.15000000
   H     68.44000000    87.85000000    31.20000000
   H     67.96000000    86.28000000    28.64000000
   H     66.19000000    86.29000000    31.08000000
   H     67.52000000    85.13000000    30.91000000
   N     67.37000000    88.97000000    28.72000000
   C     66.74000000    90.24000000    28.40000000
   C     67.50000000    91.52000000    28.70000000
   O     67.24000000    92.56000000    28.10000000
   C     66.10000000    90.10000000    27.03000000
   C     64.99000000    91.10000000    26.79000000
   C     65.12000000    92.13000000    25.85000000
   C     63.71000000    90.92000000    27.34000000
   C     64.07000000    92.98000000    25.49000000
   C     62.67000000    91.81000000    27.06000000
   C     62.84000000    92.85000000    26.14000000
   H     68.38000000    88.95000000    28.71000000
   H     65.95000000    90.23000000    29.15000000
   H     65.79000000    89.07000000    26.86000000
   H     66.88000000    90.38000000    26.33000000
   H     66.01000000    92.19000000    25.24000000
   H     63.56000000    90.11000000    28.04000000
   H     64.16000000    93.75000000    24.74000000
   H     61.65000000    91.62000000    27.38000000
   H     62.00000000    93.46000000    25.87000000
   N     68.46000000    91.62000000    29.63000000
   C     68.90000000    90.71000000    30.67000000
   C     67.92000000    90.39000000    31.78000000
   O     67.94000000    89.28000000    32.31000000
   C     70.20000000    91.31000000    31.19000000
   C     70.70000000    92.25000000    30.08000000
   C     69.38000000    92.73000000    29.49000000
   H     69.20000000    89.77000000    30.21000000
   H     69.91000000    91.88000000    32.07000000
   H     71.00000000    90.60000000    31.41000000
   H     71.25000000    93.09000000    30.50000000
   H     71.32000000    91.71000000    29.37000000
   H     68.98000000    93.49000000    30.16000000
   H     69.54000000    93.17000000    28.50000000
   N     66.93000000    91.27000000    32.01000000
   C     65.81000000    90.99000000    32.88000000
   C     66.16000000    90.39000000    34.23000000
   O     65.63000000    89.44000000    34.80000000
   C     64.75000000    90.20000000    32.10000000
   C     63.88000000    90.88000000    31.05000000
   C     62.60000000    91.41000000    31.65000000
   O     61.50000000    90.82000000    31.53000000
   O     62.69000000    92.45000000    32.35000000
   H     67.03000000    92.17000000    31.57000000
   H     65.36000000    91.96000000    33.06000000
   H     64.12000000    89.74000000    32.87000000
   H     65.26000000    89.32000000    31.73000000
   H     63.53000000    90.14000000    30.32000000
   H     64.40000000    91.67000000    30.51000000
   N     67.18000000    91.05000000    34.78000000
   C     67.78000000    90.60000000    36.02000000
   H     68.67800000    91.18400000    36.22100000
   H     67.07000000    90.73200000    36.83700000
   H     68.04400000    89.54600000    35.93500000
   H     67.71000000    91.80000000    34.36000000
  Ca     67.19000000    84.04000000    26.10000000
   O     69.81000000    84.58000000    26.83000000
   H     70.72000000    84.46000000    26.54000000
   H     69.88000000    85.04000000    27.66000000
   O     65.07000000    82.07000000    26.52000000
   H     64.97000000    81.47000000    25.78000000
   H     64.79000000    81.57000000    27.28000000
   O     68.26000000    82.09000000    27.76000000
   H     68.46000000    81.17000000    27.61000000
   H     67.87000000    82.11000000    28.64000000
   O     64.96000000    84.83000000    25.05000000
   H     64.14000000    84.85000000    25.54000000
   H     64.73000000    85.14000000    24.18000000
   O     67.52000000    86.71000000    26.03000000
   H     66.69000000    87.11000000    25.76000000
   H     68.15000000    87.43000000    26.02000000
   O     67.69000000    81.62000000    24.73000000
   H     68.41000000    81.28000000    24.20000000
   H     66.91000000    81.52000000    24.18000000

Ca 1.00



