%chk=loop1.apoCaM-CA-Ng.Init31.run43.water4.chk
%nprocshared=20
%mem=10GB
%nosave
#b3lyp/svp scf=(tight,noincore,xqc) Test 
#IOP(5/87=12) Density=Current Pop=(MK,readradii) iop(6/33=2) iop(6/42=6)

loop1.apoCaM-CA-Ng.Init31.run43.water4 

   0  1 
   C     98.58000000    70.49000000    19.37000000
   C     98.80000000    71.82000000    18.66000000
   O     99.91000000    72.34000000    18.68000000
   H     97.57800000    70.12200000    19.14900000
   H     99.31700000    69.76600000    19.02300000
   H     98.68600000    70.63000000    20.44600000
   N     97.81000000    72.38000000    17.96000000
   C     97.97000000    73.59000000    17.18000000
   C     96.85000000    74.59000000    17.39000000
   O     95.81000000    74.25000000    17.95000000
   C     98.11000000    73.26000000    15.69000000
   C     98.43000000    74.35000000    14.68000000
   O     99.03000000    75.40000000    14.99000000
   O     98.28000000    74.12000000    13.47000000
   H     96.99000000    71.82000000    17.77000000
   H     98.84000000    74.18000000    17.49000000
   H     97.27000000    72.71000000    15.26000000
   H     98.99000000    72.63000000    15.79000000
   N     96.95000000    75.82000000    16.88000000
   C     96.00000000    76.88000000    17.15000000
   C     94.62000000    76.81000000    16.50000000
   O     93.65000000    76.94000000    17.24000000
   C     96.65000000    78.24000000    16.91000000
   C     95.86000000    79.47000000    17.34000000
   C     95.49000000    79.46000000    18.82000000
   C     94.59000000    80.64000000    19.19000000
   N     94.37000000    80.59000000    20.64000000
   H     97.84000000    76.06000000    16.47000000
   H     95.78000000    76.70000000    18.20000000
   H     96.68000000    78.39000000    15.83000000
   H     97.65000000    78.20000000    17.33000000
   H     94.94000000    79.62000000    16.78000000
   H     96.46000000    80.34000000    17.06000000
   H     96.42000000    79.58000000    19.38000000
   H     95.13000000    78.47000000    19.09000000
   H     93.62000000    80.69000000    18.70000000
   H     95.16000000    81.54000000    18.96000000
   H     95.20000000    80.59000000    21.22000000
   H     93.68000000    81.29000000    20.88000000
   H     93.95000000    79.70000000    20.88000000
   N     94.43000000    76.52000000    15.21000000
   C     95.38000000    76.36000000    14.12000000
   C     94.83000000    75.21000000    13.29000000
   O     93.65000000    75.26000000    12.92000000
   C     95.47000000    77.64000000    13.31000000
   C     96.52000000    77.50000000    12.22000000
   O     96.10000000    77.85000000    11.09000000
   O     97.67000000    77.05000000    12.41000000
   H     93.47000000    76.53000000    14.90000000
   H     96.33000000    75.93000000    14.45000000
   H     95.78000000    78.44000000    13.98000000
   H     94.53000000    77.79000000    12.77000000
   N     95.66000000    74.33000000    12.73000000
   C     95.37000000    73.38000000    11.67000000
   C     96.55000000    72.44000000    11.52000000
   O     96.80000000    71.46000000    12.22000000
   H     96.63000000    74.43000000    12.99000000
   H     95.33000000    73.95000000    10.74000000
   H     94.38000000    72.93000000    11.77000000
   N     97.25000000    72.74000000    10.42000000
   C     98.35000000    72.03000000     9.81000000
   C     97.97000000    71.37000000     8.49000000
   O     97.01000000    71.86000000     7.90000000
   C     99.56000000    72.91000000     9.50000000
   C     99.86000000    73.85000000    10.66000000
   O    100.33000000    73.43000000    11.74000000
   O     99.65000000    75.07000000    10.48000000
   H     96.84000000    73.53000000     9.93000000
   H     98.71000000    71.29000000    10.52000000
   H     99.30000000    73.50000000     8.62000000
   H    100.47000000    72.34000000     9.36000000
   N     98.57000000    70.22000000     8.17000000
   C     99.71000000    69.53000000     8.74000000
   C    101.04000000    69.89000000     8.10000000
   O    102.02000000    69.42000000     8.67000000
   H     98.06000000    69.76000000     7.42000000
   H     99.63000000    68.45000000     8.61000000
   H     99.74000000    69.66000000     9.82000000
   N    101.05000000    70.56000000     6.94000000
   C    102.17000000    70.62000000     6.03000000
   C    102.58000000    69.23000000     5.57000000
   O    103.67000000    68.70000000     5.75000000
   C    103.35000000    71.50000000     6.43000000
   C    103.03000000    72.97000000     6.67000000
   O    104.37000000    71.49000000     5.47000000
   H    100.16000000    70.71000000     6.48000000
   H    101.81000000    71.18000000     5.16000000
   H    103.84000000    71.12000000     7.33000000
   H    104.79000000    70.65000000     5.68000000
   H    102.45000000    73.33000000     5.82000000
   H    102.45000000    72.98000000     7.59000000
   H    103.86000000    73.65000000     6.90000000
   N    101.63000000    68.60000000     4.87000000
   C    101.70000000    67.28000000     4.28000000
   C    102.64000000    67.18000000     3.09000000
   O    102.16000000    66.89000000     2.00000000
   C    101.83000000    66.12000000     5.26000000
   C    100.70000000    66.07000000     6.29000000
   C    101.93000000    64.78000000     4.54000000
   C    101.12000000    65.40000000     7.59000000
   H    100.77000000    69.10000000     4.68000000
   H    100.74000000    67.18000000     3.77000000
   H    102.80000000    66.17000000     5.76000000
   H     99.88000000    65.45000000     5.91000000
   H    100.31000000    67.05000000     6.55000000
   H    101.88000000    63.92000000     5.22000000
   H    101.06000000    64.59000000     3.91000000
   H    102.82000000    64.67000000     3.94000000
   H    101.82000000    66.06000000     8.10000000
   H    100.33000000    65.12000000     8.30000000
   H    101.67000000    64.49000000     7.35000000
   N    103.94000000    67.46000000     3.21000000
   C    104.99000000    67.33000000     2.22000000
   C    106.17000000    66.53000000     2.76000000
   O    106.30000000    66.44000000     3.98000000
   C    105.48000000    68.68000000     1.72000000
   C    105.79000000    69.83000000     2.67000000
   O    104.47000000    69.16000000     0.86000000
   H    104.35000000    67.64000000     4.11000000
   H    104.65000000    66.70000000     1.40000000
   H    106.45000000    68.55000000     1.23000000
   H    103.76000000    69.34000000     1.49000000
   H    104.92000000    70.03000000     3.29000000
   H    106.60000000    69.65000000     3.37000000
   H    106.14000000    70.73000000     2.16000000
   N    107.03000000    66.01000000     1.88000000
   C    108.28000000    65.40000000     2.30000000
   C    109.18000000    66.38000000     3.04000000
   O    109.43000000    67.52000000     2.68000000
   C    109.13000000    64.93000000     1.12000000
   C    108.47000000    63.75000000     0.41000000
   O    109.39000000    65.90000000     0.13000000
   H    106.83000000    66.17000000     0.90000000
   H    108.14000000    64.63000000     3.05000000
   H    110.14000000    64.66000000     1.44000000
   H    108.53000000    66.13000000    -0.23000000
   H    108.26000000    63.04000000     1.21000000
   H    107.54000000    64.04000000    -0.09000000
   H    109.13000000    63.41000000    -0.39000000
   N    109.71000000    65.87000000     4.16000000
   C    110.66000000    66.54000000     5.03000000
   C    110.24000000    67.96000000     5.36000000
   O    110.80000000    68.95000000     4.91000000
   C    112.09000000    66.41000000     4.51000000
   C    113.11000000    66.42000000     5.64000000
   C    114.55000000    66.15000000     5.21000000
   C    115.50000000    66.15000000     6.40000000
   N    115.28000000    64.93000000     7.19000000
   H    109.44000000    64.93000000     4.39000000
   H    110.62000000    65.99000000     5.97000000
   H    112.45000000    67.00000000     3.67000000
   H    112.17000000    65.42000000     4.05000000
   H    112.73000000    65.73000000     6.39000000
   H    113.04000000    67.38000000     6.14000000
   H    114.85000000    66.98000000     4.57000000
   H    114.64000000    65.19000000     4.70000000
   H    115.31000000    66.99000000     7.06000000
   H    116.50000000    66.09000000     5.95000000
   H    115.81000000    64.94000000     8.04000000
   H    114.30000000    64.72000000     7.32000000
   H    115.71000000    64.13000000     6.75000000
   N    109.12000000    68.04000000     6.08000000
   C    108.37000000    69.19000000     6.56000000
   C    106.87000000    68.96000000     6.65000000
   O    106.08000000    69.89000000     6.78000000
   C    108.90000000    69.60000000     7.92000000
   C    110.18000000    70.41000000     7.71000000
   C    110.52000000    71.23000000     8.95000000
   O    109.81000000    72.24000000     9.15000000
   O    111.46000000    70.83000000     9.68000000
   H    108.78000000    67.10000000     6.22000000
   H    108.37000000    70.00000000     5.83000000
   H    109.04000000    68.77000000     8.61000000
   H    108.16000000    70.23000000     8.44000000
   H    110.10000000    71.12000000     6.89000000
   H    110.98000000    69.68000000     7.62000000
   N    106.30000000    67.75000000     6.75000000
   C    106.89000000    66.46000000     7.05000000
   H    107.83700000    66.60600000     7.56900000
   H    106.21300000    65.88900000     7.68500000
   H    107.06500000    65.91500000     6.12200000
   H    105.29000000    67.81000000     6.66000000
  Ca    100.02500000    76.18000000    12.76000000
   O    101.70500000    75.08000000    14.53000000
   H    101.92500000    74.16000000    14.69000000
   H    101.02500000    75.27000000    15.17000000
   O    102.67500000    76.51000000    12.21000000
   H    102.80500000    76.63000000    11.27000000
   H    103.46500000    76.87000000    12.62000000
   O    100.85500000    78.26000000    13.99000000
   H    101.57500000    78.88000000    13.86000000
   H    100.31500000    78.65000000    14.67000000
   O    100.49500000    78.23000000    11.07000000
   H    100.71500000    79.16000000    11.16000000
   H     99.79500000    78.22000000    10.42000000

Ca 1.00



