%chk=loop2.holoCaM.run58.water1.chk
%nprocshared=20
%mem=10GB
%nosave
#b3lyp/svp scf=(tight,noincore,xqc) Test 
#IOP(5/87=12) Density=Current Pop=(MK,readradii) iop(6/33=2) iop(6/42=6)

loop2.holoCaM.run58.water1 

   -2  1 
   C     51.18000000    58.38000000   -13.42100000
   C     49.66000000    58.39000000   -13.35100000
   O     49.25000000    58.99000000   -12.36100000
   H     51.58900000    58.74500000   -12.47900000
   H     51.52900000    57.36300000   -13.59800000
   H     51.51100000    59.02600000   -14.23400000
   N     48.95000000    57.74000000   -14.28100000
   C     47.50000000    57.68000000   -14.34100000
   C     46.92000000    57.04000000   -13.08100000
   O     47.14000000    55.85000000   -12.90100000
   C     47.09000000    56.86000000   -15.56100000
   C     45.59000000    56.77000000   -15.80100000
   O     45.19000000    55.98000000   -16.69100000
   O     44.82000000    57.58000000   -15.25100000
   H     49.46000000    57.25000000   -14.99100000
   H     47.09000000    58.69000000   -14.41100000
   H     47.53000000    55.87000000   -15.48100000
   H     47.61000000    57.22000000   -16.45100000
   N     46.13000000    57.78000000   -12.30100000
   C     45.62000000    57.31000000   -11.03100000
   C     44.31000000    56.53000000   -11.06100000
   O     43.84000000    56.02000000   -10.04100000
   C     45.60000000    58.46000000   -10.03100000
   H     45.92000000    58.69000000   -12.71100000
   H     46.40000000    56.63000000   -10.68100000
   H     46.50000000    59.06000000   -10.13100000
   H     44.70000000    59.09000000   -10.05100000
   H     45.71000000    58.00000000    -9.05100000
   N     43.71000000    56.39000000   -12.24100000
   C     42.38000000    55.88000000   -12.50100000
   C     42.35000000    54.86000000   -13.63100000
   O     41.28000000    54.66000000   -14.21100000
   C     41.44000000    57.08000000   -12.55100000
   C     41.91000000    58.08000000   -13.59100000
   O     41.94000000    57.74000000   -14.79100000
   O     42.27000000    59.23000000   -13.25100000
   H     44.12000000    56.88000000   -13.03100000
   H     42.04000000    55.34000000   -11.62100000
   H     41.38000000    57.58000000   -11.59100000
   H     40.43000000    56.80000000   -12.87100000
   N     43.47000000    54.20000000   -13.92100000
   C     43.43000000    52.93000000   -14.62100000
   C     43.04000000    52.83000000   -16.08100000
   O     43.16000000    51.73000000   -16.62100000
   H     44.31000000    54.43000000   -13.41100000
   H     42.67000000    52.34000000   -14.10100000
   H     44.42000000    52.50000000   -14.53100000
   N     42.62000000    53.93000000   -16.71100000
   C     41.87000000    53.91000000   -17.94100000
   C     42.56000000    54.62000000   -19.10100000
   O     41.91000000    55.12000000   -20.01100000
   C     40.50000000    54.56000000   -17.72100000
   C     39.37000000    54.04000000   -18.59100000
   N     38.51000000    54.98000000   -19.00100000
   O     39.31000000    52.87000000   -18.98100000
   H     42.64000000    54.80000000   -16.18100000
   H     41.63000000    52.90000000   -18.26100000
   H     40.56000000    55.65000000   -17.77100000
   H     40.29000000    54.20000000   -16.71100000
   H     38.66000000    55.97000000   -18.90100000
   H     37.70000000    54.70000000   -19.53100000
   N     43.89000000    54.49000000   -19.10100000
   C     44.73000000    54.85000000   -20.22100000
   C     44.80000000    56.31000000   -20.63100000
   O     44.97000000    56.53000000   -21.83100000
   H     44.35000000    53.97000000   -18.36100000
   H     44.23000000    54.37000000   -21.06100000
   H     45.74000000    54.43000000   -20.16100000
   N     44.50000000    57.27000000   -19.75100000
   C     44.29000000    58.67000000   -20.09100000
   C     44.80000000    59.68000000   -19.07100000
   O     44.70000000    59.51000000   -17.85100000
   C     42.89000000    59.13000000   -20.47100000
   C     42.42000000    58.53000000   -21.79100000
   O     41.90000000    58.69000000   -19.57100000
   H     44.36000000    56.95000000   -18.81100000
   H     44.96000000    58.79000000   -20.94100000
   H     42.84000000    60.22000000   -20.53100000
   H     42.29000000    57.89000000   -19.19100000
   H     41.35000000    58.66000000   -21.95100000
   H     42.95000000    59.03000000   -22.61100000
   H     42.68000000    57.48000000   -21.93100000
   N     45.54000000    60.67000000   -19.58100000
   C     46.22000000    61.75000000   -18.90100000
   C     45.23000000    62.90000000   -18.76100000
   O     44.94000000    63.69000000   -19.65100000
   C     47.50000000    61.97000000   -19.70100000
   C     48.37000000    60.72000000   -19.75100000
   C     48.24000000    63.17000000   -19.11100000
   C     48.83000000    60.19000000   -18.40100000
   H     45.55000000    60.78000000   -20.58100000
   H     46.44000000    61.40000000   -17.89100000
   H     47.17000000    62.20000000   -20.71100000
   H     49.23000000    60.84000000   -20.42100000
   H     47.84000000    59.88000000   -20.20100000
   H     47.95000000    64.01000000   -19.74100000
   H     47.98000000    63.29000000   -18.06100000
   H     49.31000000    63.02000000   -19.24100000
   H     47.98000000    59.72000000   -17.91100000
   H     49.64000000    59.46000000   -18.36100000
   H     49.20000000    61.04000000   -17.83100000
   N     44.93000000    63.19000000   -17.50100000
   C     44.43000000    64.44000000   -16.96100000
   C     45.59000000    65.40000000   -16.70100000
   O     46.77000000    65.07000000   -16.63100000
   C     43.70000000    64.24000000   -15.63100000
   C     42.52000000    63.29000000   -15.70100000
   O     42.58000000    62.11000000   -15.27100000
   O     41.43000000    63.86000000   -15.92100000
   H     45.32000000    62.50000000   -16.87100000
   H     43.75000000    64.89000000   -17.68100000
   H     43.27000000    65.22000000   -15.45100000
   H     44.43000000    63.97000000   -14.87100000
   N     45.22000000    66.68000000   -16.58100000
   C     46.11000000    67.77000000   -16.21100000
   C     47.00000000    67.53000000   -15.00100000
   O     48.22000000    67.71000000   -15.07100000
   C     45.37000000    69.10000000   -16.25100000
   C     46.34000000    70.25000000   -16.23100000
   C     47.30000000    70.45000000   -17.23100000
   C     46.30000000    71.11000000   -15.13100000
   C     48.28000000    71.45000000   -17.14100000
   C     47.26000000    72.12000000   -15.00100000
   C     48.19000000    72.29000000   -16.03100000
   H     44.23000000    66.88000000   -16.60100000
   H     46.74000000    67.75000000   -17.10100000
   H     44.71000000    69.25000000   -15.39100000
   H     44.82000000    69.11000000   -17.19100000
   H     47.38000000    69.81000000   -18.10100000
   H     45.53000000    70.97000000   -14.38100000
   H     48.93000000    71.46000000   -18.00100000
   H     47.18000000    72.79000000   -14.16100000
   H     48.83000000    73.17000000   -15.99100000
   N     46.46000000    67.02000000   -13.89100000
   C     47.23000000    66.70000000   -12.70100000
   C     48.05000000    65.44000000   -12.85100000
   O     48.42000000    64.80000000   -11.87100000
   C     46.19000000    66.58000000   -11.59100000
   C     44.88000000    67.18000000   -12.10100000
   C     45.07000000    66.79000000   -13.57100000
   H     47.73000000    67.63000000   -12.42100000
   H     46.06000000    65.53000000   -11.32100000
   H     46.43000000    67.11000000   -10.67100000
   H     44.04000000    66.66000000   -11.64100000
   H     44.83000000    68.27000000   -12.06100000
   H     44.72000000    65.76000000   -13.67100000
   H     44.47000000    67.56000000   -14.07100000
   N     48.25000000    64.90000000   -14.06100000
   C     49.02000000    63.72000000   -14.36100000
   C     49.91000000    64.01000000   -15.57100000
   O     51.05000000    63.57000000   -15.62100000
   C     48.03000000    62.61000000   -14.71100000
   C     46.87000000    62.33000000   -13.76100000
   C     45.88000000    61.29000000   -14.26100000
   O     45.61000000    61.38000000   -15.48100000
   O     45.35000000    60.43000000   -13.52100000
   H     47.77000000    65.42000000   -14.79100000
   H     49.65000000    63.42000000   -13.53100000
   H     48.66000000    61.72000000   -14.75100000
   H     47.69000000    62.74000000   -15.74100000
   H     46.30000000    63.22000000   -13.49100000
   H     47.34000000    61.90000000   -12.88100000
   N     49.50000000    64.91000000   -16.47100000
   C     50.26000000    65.61000000   -17.48100000
   H     51.24600000    65.15500000   -17.57300000
   H     49.74000000    65.54600000   -18.43700000
   H     50.36900000    66.65600000   -17.19500000
   H     48.54000000    65.20000000   -16.51100000
  Ca     43.65000000    59.80000000   -15.36100000
   O     41.50000000    59.99000000   -17.06100000
   H     41.23000000    59.45000000   -17.81100000
   H     40.97000000    60.78000000   -17.14100000

Ca 1.00



