%chk=loop1.holoCaM-CaMKII.run54.water2.chk
%nprocshared=20
%mem=10GB
%nosave
#b3lyp/svp scf=(tight,noincore,xqc) Test 
#IOP(5/87=12) Density=Current Pop=(MK,readradii) iop(6/33=2) iop(6/42=6)

loop1.holoCaM-CaMKII.run54.water2 

   0  1 
   C     20.31000000    58.99000000    13.00000000
   C     19.30000000    59.31000000    11.92000000
   O     18.74000000    58.35000000    11.39000000
   H     21.17600000    59.64300000    12.89100000
   H     19.85800000    59.14700000    13.97900000
   H     20.62500000    57.95100000    12.90700000
   N     18.89000000    60.57000000    11.71000000
   C     17.98000000    61.04000000    10.69000000
   C     18.66000000    60.76000000     9.36000000
   O     19.35000000    61.61000000     8.80000000
   C     17.62000000    62.51000000    10.88000000
   C     16.63000000    63.04000000     9.85000000
   O     16.48000000    64.27000000     9.68000000
   O     16.01000000    62.21000000     9.15000000
   H     19.29000000    61.28000000    12.32000000
   H     17.05000000    60.48000000    10.71000000
   H     18.54000000    63.10000000    10.78000000
   H     17.18000000    62.71000000    11.85000000
   N     18.19000000    59.70000000     8.69000000
   C     18.93000000    59.02000000     7.65000000
   C     18.58000000    59.35000000     6.20000000
   O     19.32000000    59.05000000     5.28000000
   C     18.92000000    57.55000000     8.04000000
   C     19.56000000    56.64000000     7.00000000
   C     19.75000000    55.20000000     7.45000000
   C     18.56000000    54.63000000     8.22000000
   N     18.87000000    53.22000000     8.50000000
   H     17.47000000    59.15000000     9.13000000
   H     19.99000000    59.27000000     7.61000000
   H     17.91000000    57.29000000     8.37000000
   H     19.62000000    57.48000000     8.87000000
   H     20.56000000    57.06000000     6.91000000
   H     18.97000000    56.67000000     6.09000000
   H     20.59000000    55.31000000     8.13000000
   H     19.98000000    54.61000000     6.56000000
   H     17.66000000    54.66000000     7.60000000
   H     18.30000000    55.29000000     9.05000000
   H     18.01000000    52.81000000     8.83000000
   H     19.13000000    52.68000000     7.68000000
   H     19.59000000    53.19000000     9.20000000
   N     17.55000000    60.19000000     6.06000000
   C     17.00000000    60.68000000     4.81000000
   C     16.89000000    62.20000000     4.81000000
   O     17.14000000    62.87000000     3.81000000
   C     15.62000000    60.11000000     4.49000000
   C     14.63000000    60.04000000     5.64000000
   O     13.64000000    59.28000000     5.55000000
   O     14.81000000    60.68000000     6.71000000
   H     17.03000000    60.35000000     6.91000000
   H     17.69000000    60.37000000     4.03000000
   H     15.87000000    59.10000000     4.16000000
   H     15.25000000    60.77000000     3.70000000
   N     16.37000000    62.76000000     5.90000000
   C     16.36000000    64.19000000     6.12000000
   C     14.96000000    64.79000000     6.25000000
   O     14.32000000    65.11000000     5.25000000
   H     16.33000000    62.21000000     6.75000000
   H     17.04000000    64.81000000     5.54000000
   H     16.73000000    64.28000000     7.15000000
   N     14.56000000    65.03000000     7.50000000
   C     13.27000000    65.59000000     7.82000000
   C     13.25000000    66.12000000     9.25000000
   O     12.27000000    66.72000000     9.65000000
   C     12.18000000    64.55000000     7.58000000
   C     12.41000000    63.23000000     8.31000000
   O     12.11000000    62.11000000     7.85000000
   O     12.91000000    63.26000000     9.45000000
   H     15.11000000    64.54000000     8.19000000
   H     13.10000000    66.44000000     7.15000000
   H     12.09000000    64.29000000     6.52000000
   H     11.29000000    65.05000000     7.95000000
   N     14.32000000    65.97000000    10.04000000
   C     14.36000000    66.54000000    11.37000000
   C     13.58000000    65.75000000    12.41000000
   O     13.33000000    66.19000000    13.53000000
   H     15.09000000    65.40000000     9.72000000
   H     14.10000000    67.60000000    11.37000000
   H     15.38000000    66.65000000    11.73000000
   N     13.23000000    64.51000000    12.06000000
   C     12.83000000    63.49000000    13.01000000
   C     13.65000000    62.20000000    12.93000000
   O     14.22000000    61.86000000    11.90000000
   C     11.36000000    63.13000000    12.81000000
   C     10.44000000    64.34000000    13.00000000
   O     11.11000000    62.66000000    11.50000000
   H     13.49000000    64.16000000    11.15000000
   H     12.88000000    63.80000000    14.05000000
   H     11.06000000    62.36000000    13.52000000
   H     11.54000000    63.30000000    10.93000000
   H      9.60000000    64.03000000    13.62000000
   H     10.86000000    65.20000000    13.51000000
   H     10.08000000    64.69000000    12.04000000
   N     13.74000000    61.53000000    14.08000000
   C     14.26000000    60.18000000    14.16000000
   C     13.17000000    59.21000000    14.60000000
   O     12.46000000    59.42000000    15.58000000
   C     15.37000000    60.15000000    15.20000000
   C     16.41000000    61.27000000    15.07000000
   C     16.01000000    58.77000000    15.27000000
   C     17.33000000    61.38000000    16.27000000
   H     13.40000000    61.94000000    14.94000000
   H     14.68000000    59.84000000    13.22000000
   H     14.95000000    60.33000000    16.19000000
   H     16.00000000    62.28000000    15.02000000
   H     16.89000000    61.15000000    14.10000000
   H     16.65000000    58.60000000    16.14000000
   H     15.30000000    57.96000000    15.38000000
   H     16.63000000    58.57000000    14.39000000
   H     16.87000000    61.59000000    17.24000000
   H     17.93000000    60.47000000    16.38000000
   H     17.94000000    62.28000000    16.16000000
   N     12.94000000    58.15000000    13.82000000
   C     12.00000000    57.09000000    14.15000000
   C     12.62000000    55.88000000    14.83000000
   O     13.84000000    55.74000000    14.84000000
   C     11.29000000    56.58000000    12.90000000
   C     10.58000000    57.75000000    12.23000000
   O     12.08000000    56.03000000    11.87000000
   H     13.34000000    58.22000000    12.89000000
   H     11.29000000    57.60000000    14.79000000
   H     10.55000000    55.82000000    13.16000000
   H     12.58000000    56.76000000    11.49000000
   H     11.00000000    58.76000000    12.29000000
   H     10.51000000    57.47000000    11.18000000
   H      9.52000000    57.77000000    12.48000000
   N     11.88000000    54.94000000    15.43000000
   C     12.26000000    53.64000000    15.94000000
   C     13.35000000    52.89000000    15.18000000
   O     14.34000000    52.49000000    15.79000000
   C     11.16000000    52.60000000    16.06000000
   C     11.38000000    51.25000000    16.74000000
   O     10.24000000    53.23000000    16.93000000
   H     10.87000000    55.06000000    15.39000000
   H     12.60000000    53.77000000    16.97000000
   H     10.69000000    52.33000000    15.11000000
   H      9.40000000    52.91000000    16.59000000
   H     10.64000000    50.99000000    17.50000000
   H     11.44000000    50.56000000    15.90000000
   H     12.40000000    50.99000000    17.01000000
   N     13.16000000    52.77000000    13.86000000
   C     14.09000000    52.18000000    12.94000000
   C     15.34000000    53.02000000    12.70000000
   O     16.44000000    52.47000000    12.71000000
   C     13.34000000    52.05000000    11.61000000
   C     12.38000000    50.87000000    11.70000000
   C     11.82000000    50.38000000    10.37000000
   C     10.86000000    49.24000000    10.67000000
   N     10.39000000    48.66000000     9.40000000
   H     12.26000000    53.13000000    13.56000000
   H     14.39000000    51.21000000    13.34000000
   H     14.06000000    51.91000000    10.80000000
   H     12.72000000    52.92000000    11.39000000
   H     11.57000000    51.07000000    12.41000000
   H     12.98000000    50.04000000    12.07000000
   H     12.65000000    50.02000000     9.75000000
   H     11.34000000    51.21000000     9.85000000
   H     10.06000000    49.65000000    11.29000000
   H     11.34000000    48.51000000    11.32000000
   H     10.42000000    49.33000000     8.65000000
   H     10.99000000    47.95000000     9.00000000
   H      9.54000000    48.10000000     9.41000000
   N     15.20000000    54.34000000    12.59000000
   C     16.34000000    55.24000000    12.54000000
   C     17.22000000    55.20000000    13.77000000
   O     18.44000000    55.16000000    13.59000000
   C     15.81000000    56.64000000    12.24000000
   C     15.44000000    56.76000000    10.76000000
   C     14.93000000    58.15000000    10.40000000
   O     15.47000000    58.74000000     9.43000000
   O     14.01000000    58.71000000    11.02000000
   H     14.29000000    54.75000000    12.76000000
   H     16.94000000    54.91000000    11.69000000
   H     16.59000000    57.36000000    12.50000000
   H     14.98000000    56.88000000    12.90000000
   H     14.72000000    56.02000000    10.42000000
   H     16.38000000    56.58000000    10.24000000
   N     16.63000000    55.12000000    14.97000000
   C     17.31000000    54.79000000    16.20000000
   H     18.21000000    55.39800000    16.29200000
   H     16.65100000    54.98800000    17.04500000
   H     17.58500000    53.73500000    16.19200000
   H     15.63000000    55.23000000    15.06000000
  Ca     13.78000000    60.76000000     9.16000000
   O     12.38000000    58.86000000     7.99000000
   H     12.56000000    58.97000000     7.06000000
   H     12.07000000    57.96000000     8.07000000
   O     11.54000000    60.29000000    10.46000000
   H     11.30000000    59.64000000    11.12000000
   H     11.48000000    61.13000000    10.91000000

Ca 1.00



