%chk=loop4.apoCaM-CA-Ng.Init293.run67.water3.chk
%nprocshared=20
%mem=10GB
%nosave
#b3lyp/svp scf=(tight,noincore,xqc) Test 
#IOP(5/87=12) Density=Current Pop=(MK,readradii) iop(6/33=2) iop(6/42=6)

loop4.apoCaM-CA-Ng.Init293.run67.water3 

   -3  1 
   C     54.09000000    54.59000000    50.65000000
   C     52.92000000    54.46000000    49.68000000
   O     52.39000000    55.45000000    49.17000000
   H     54.90300000    55.13100000    50.16700000
   H     53.76800000    55.13500000    51.53700000
   H     54.43600000    53.59700000    50.93800000
   N     52.51000000    53.20000000    49.52000000
   C     51.28000000    52.68000000    48.95000000
   C     50.83000000    52.96000000    47.52000000
   O     49.79000000    52.44000000    47.12000000
   C     50.15000000    52.79000000    49.97000000
   C     49.26000000    54.03000000    49.97000000
   O     49.44000000    55.08000000    49.32000000
   O     48.24000000    53.96000000    50.70000000
   H     53.11000000    52.55000000    50.00000000
   H     51.41000000    51.60000000    48.92000000
   H     50.39000000    52.43000000    50.97000000
   H     49.41000000    52.07000000    49.62000000
   N     51.62000000    53.76000000    46.80000000
   C     51.35000000    54.24000000    45.46000000
   C     50.53000000    55.52000000    45.40000000
   O     50.63000000    56.31000000    46.33000000
   C     52.69000000    54.32000000    44.72000000
   C     53.25000000    52.95000000    44.35000000
   C     53.76000000    55.19000000    45.35000000
   C     54.34000000    52.91000000    43.28000000
   H     52.32000000    54.28000000    47.29000000
   H     50.77000000    53.53000000    44.86000000
   H     52.55000000    54.75000000    43.73000000
   H     52.51000000    52.22000000    44.02000000
   H     53.65000000    52.47000000    45.24000000
   H     53.36000000    55.83000000    46.14000000
   H     54.52000000    54.56000000    45.82000000
   H     54.17000000    55.79000000    44.54000000
   H     54.80000000    51.92000000    43.28000000
   H     53.95000000    53.19000000    42.30000000
   H     55.11000000    53.64000000    43.55000000
   N     49.66000000    55.76000000    44.41000000
   C     48.83000000    56.93000000    44.25000000
   C     47.68000000    56.96000000    45.25000000
   O     47.02000000    55.97000000    45.58000000
   C     48.31000000    57.06000000    42.83000000
   C     47.80000000    55.83000000    42.09000000
   O     46.88000000    55.93000000    41.25000000
   O     48.34000000    54.71000000    42.22000000
   H     49.51000000    55.10000000    43.66000000
   H     49.48000000    57.79000000    44.43000000
   H     49.10000000    57.32000000    42.12000000
   H     47.50000000    57.78000000    42.80000000
   N     47.20000000    58.07000000    45.80000000
   C     47.72000000    59.41000000    45.57000000
   C     48.89000000    59.83000000    46.45000000
   O     49.53000000    59.00000000    47.07000000
   H     46.26000000    57.93000000    46.15000000
   H     46.88000000    60.11000000    45.59000000
   H     48.08000000    59.47000000    44.54000000
   N     49.30000000    61.10000000    46.46000000
   C     48.74000000    62.22000000    45.73000000
   C     49.86000000    63.05000000    45.09000000
   O     50.31000000    64.05000000    45.64000000
   C     47.85000000    63.01000000    46.67000000
   C     47.43000000    64.32000000    46.00000000
   O     47.31000000    64.37000000    44.76000000
   O     47.08000000    65.26000000    46.74000000
   H     50.14000000    61.19000000    47.00000000
   H     48.11000000    61.90000000    44.90000000
   H     48.40000000    63.28000000    47.58000000
   H     46.96000000    62.45000000    46.97000000
   N     50.32000000    62.57000000    43.93000000
   C     49.99000000    61.32000000    43.28000000
   C     50.44000000    61.39000000    41.82000000
   O     49.71000000    60.90000000    40.96000000
   H     51.16000000    63.02000000    43.59000000
   H     48.92000000    61.11000000    43.31000000
   H     50.56000000    60.59000000    43.85000000
   N     51.62000000    61.96000000    41.56000000
   C     52.40000000    61.95000000    40.34000000
   C     53.39000000    60.80000000    40.37000000
   O     54.08000000    60.59000000    39.38000000
   C     53.06000000    63.31000000    40.16000000
   C     53.40000000    63.67000000    38.72000000
   C     54.33000000    64.87000000    38.61000000
   N     54.11000000    65.98000000    39.33000000
   O     55.34000000    64.85000000    37.92000000
   H     52.04000000    62.53000000    42.28000000
   H     51.79000000    61.80000000    39.45000000
   H     53.97000000    63.29000000    40.76000000
   H     52.32000000    63.98000000    40.59000000
   H     52.48000000    63.82000000    38.15000000
   H     53.80000000    62.78000000    38.22000000
   H     53.30000000    66.05000000    39.93000000
   H     54.79000000    66.71000000    39.19000000
   N     53.55000000    60.04000000    41.46000000
   C     54.37000000    58.88000000    41.73000000
   C     55.06000000    58.90000000    43.09000000
   O     54.42000000    59.27000000    44.07000000
   C     53.51000000    57.63000000    41.68000000
   C     53.06000000    57.37000000    40.25000000
   C     52.33000000    57.61000000    42.65000000
   H     52.88000000    60.29000000    42.18000000
   H     55.11000000    58.82000000    40.93000000
   H     54.18000000    56.78000000    41.81000000
   H     53.91000000    57.09000000    39.63000000
   H     52.42000000    56.50000000    40.37000000
   H     52.53000000    58.21000000    39.80000000
   H     51.62000000    56.90000000    42.25000000
   H     52.70000000    57.29000000    43.63000000
   H     51.89000000    58.57000000    42.91000000
   N     56.37000000    58.67000000    43.01000000
   C     57.27000000    58.91000000    44.12000000
   C     57.52000000    60.33000000    44.61000000
   O     58.10000000    60.47000000    45.68000000
   C     58.59000000    58.21000000    43.78000000
   C     59.72000000    58.20000000    44.79000000
   N     60.95000000    58.47000000    44.33000000
   O     59.54000000    58.04000000    45.99000000
   H     56.68000000    58.40000000    42.09000000
   H     56.90000000    58.36000000    44.98000000
   H     58.95000000    58.65000000    42.85000000
   H     58.40000000    57.16000000    43.57000000
   H     61.09000000    58.59000000    43.33000000
   H     61.67000000    58.39000000    45.03000000
   N     57.15000000    61.29000000    43.75000000
   C     57.22000000    62.68000000    44.16000000
   C     56.32000000    62.94000000    45.35000000
   O     55.15000000    62.59000000    45.49000000
   C     56.75000000    63.59000000    43.03000000
   C     56.88000000    65.08000000    43.24000000
   C     58.13000000    65.59000000    43.61000000
   C     55.78000000    65.95000000    43.18000000
   C     58.38000000    66.96000000    43.76000000
   C     55.99000000    67.32000000    43.38000000
   C     57.28000000    67.83000000    43.60000000
   O     57.45000000    69.18000000    43.65000000
   H     56.81000000    61.09000000    42.82000000
   H     58.27000000    62.89000000    44.37000000
   H     55.72000000    63.35000000    42.78000000
   H     57.44000000    63.33000000    42.23000000
   H     58.96000000    64.91000000    43.69000000
   H     54.82000000    65.48000000    42.98000000
   H     59.34000000    67.35000000    44.07000000
   H     55.18000000    68.02000000    43.25000000
   H     58.39000000    69.38000000    43.71000000
   N     56.93000000    63.54000000    46.38000000
   C     56.51000000    63.88000000    47.72000000
   C     56.45000000    62.66000000    48.63000000
   O     56.36000000    62.81000000    49.85000000
   C     55.28000000    64.78000000    47.70000000
   C     55.61000000    66.09000000    46.98000000
   C     54.49000000    67.11000000    47.15000000
   O     54.54000000    67.83000000    48.17000000
   O     53.56000000    67.08000000    46.31000000
   H     57.83000000    63.97000000    46.22000000
   H     57.36000000    64.45000000    48.10000000
   H     54.92000000    65.17000000    48.65000000
   H     54.48000000    64.23000000    47.20000000
   H     55.82000000    65.85000000    45.94000000
   H     56.57000000    66.43000000    47.36000000
   N     56.52000000    61.44000000    48.09000000
   C     56.83000000    60.23000000    48.82000000
   C     58.30000000    60.08000000    49.20000000
   O     58.62000000    59.37000000    50.16000000
   C     56.29000000    59.00000000    48.09000000
   C     54.94000000    59.01000000    47.38000000
   C     53.81000000    58.95000000    48.40000000
   O     52.70000000    58.49000000    48.04000000
   O     54.00000000    59.35000000    49.56000000
   H     56.61000000    61.48000000    47.09000000
   H     56.36000000    60.19000000    49.81000000
   H     56.27000000    58.26000000    48.90000000
   H     57.09000000    58.71000000    47.40000000
   H     54.92000000    58.12000000    46.75000000
   H     54.84000000    59.87000000    46.72000000
   N     59.20000000    60.77000000    48.50000000
   C     60.51000000    61.06000000    49.04000000
   H     61.18700000    61.32400000    48.22800000
   H     60.43900000    61.89400000    49.73900000
   H     60.89200000    60.18100000    49.56000000
   H     58.83000000    61.08000000    47.62000000
  Ca     50.50000000    57.32000000    48.84000000
   O     47.86000000    57.61000000    49.83000000
   H     47.01000000    57.22000000    49.64000000
   H     47.67000000    58.54000000    49.99000000
   O     50.29000000    59.84000000    49.87000000
   H     51.01000000    60.47000000    49.80000000
   H     49.83000000    60.10000000    50.67000000
   O     50.70000000    57.07000000    51.47000000
   H     51.30000000    57.38000000    52.15000000
   H     50.12000000    56.45000000    51.92000000

Ca 1.00



