%chk=loop2.apoCaM-CA-Ng.Init295.run30.water4.chk
%nprocshared=20
%mem=10GB
%nosave
#b3lyp/svp scf=(tight,noincore,xqc) Test 
#IOP(5/87=12) Density=Current Pop=(MK,readradii) iop(6/33=2) iop(6/42=6)

loop2.apoCaM-CA-Ng.Init295.run30.water4 

   -2  1 
   C     89.14000000    78.37000000    52.72000000
   C     90.65000000    78.41000000    52.83000000
   O     91.27000000    79.33000000    52.31000000
   H     88.73400000    79.35900000    52.93200000
   H     88.85600000    78.07100000    51.71100000
   H     88.74200000    77.65300000    53.43800000
   N     91.30000000    77.37000000    53.37000000
   C     92.70000000    77.51000000    53.70000000
   C     93.01000000    78.34000000    54.94000000
   O     92.93000000    77.86000000    56.06000000
   C     93.29000000    76.10000000    53.79000000
   C     94.81000000    76.18000000    53.88000000
   O     95.44000000    75.11000000    53.94000000
   O     95.45000000    77.26000000    53.95000000
   H     90.74000000    76.60000000    53.71000000
   H     93.24000000    77.96000000    52.87000000
   H     93.19000000    75.58000000    52.84000000
   H     92.90000000    75.61000000    54.68000000
   N     93.41000000    79.61000000    54.79000000
   C     93.62000000    80.57000000    55.85000000
   C     92.29000000    81.19000000    56.27000000
   O     91.32000000    81.37000000    55.53000000
   C     94.65000000    81.54000000    55.27000000
   H     93.33000000    79.95000000    53.85000000
   H     93.95000000    80.02000000    56.73000000
   H     95.07000000    82.22000000    56.00000000
   H     95.54000000    81.04000000    54.90000000
   H     94.17000000    82.17000000    54.52000000
   N     92.26000000    81.76000000    57.47000000
   C     93.29000000    81.82000000    58.49000000
   C     93.31000000    80.59000000    59.38000000
   O     92.24000000    80.06000000    59.69000000
   C     93.17000000    83.11000000    59.31000000
   C     93.01000000    84.44000000    58.59000000
   O     92.10000000    85.22000000    58.93000000
   O     93.63000000    84.57000000    57.52000000
   H     91.36000000    82.16000000    57.72000000
   H     94.26000000    81.91000000    58.02000000
   H     94.16000000    83.20000000    59.76000000
   H     92.49000000    82.97000000    60.15000000
   N     94.51000000    80.11000000    59.69000000
   C     94.78000000    78.83000000    60.33000000
   C     94.66000000    77.67000000    59.35000000
   O     95.00000000    77.76000000    58.17000000
   H     95.35000000    80.60000000    59.41000000
   H     94.05000000    78.72000000    61.14000000
   H     95.81000000    78.86000000    60.68000000
   N     94.04000000    76.57000000    59.77000000
   C     93.84000000    76.15000000    61.14000000
   C     92.51000000    76.56000000    61.77000000
   O     92.31000000    76.28000000    62.95000000
   C     94.20000000    74.68000000    61.29000000
   C     95.46000000    74.11000000    60.67000000
   N     95.42000000    72.78000000    60.54000000
   O     96.32000000    74.83000000    60.16000000
   H     94.05000000    75.81000000    59.11000000
   H     94.61000000    76.66000000    61.73000000
   H     93.37000000    74.10000000    60.87000000
   H     94.09000000    74.33000000    62.32000000
   H     94.55000000    72.35000000    60.81000000
   H     95.90000000    72.32000000    59.78000000
   N     91.62000000    77.23000000    61.03000000
   C     90.34000000    77.54000000    61.63000000
   C     90.36000000    78.82000000    62.46000000
   O     89.64000000    78.97000000    63.45000000
   H     91.90000000    77.58000000    60.13000000
   H     89.94000000    76.67000000    62.14000000
   H     89.64000000    77.74000000    60.82000000
   N     91.21000000    79.82000000    62.22000000
   C     91.23000000    81.04000000    63.00000000
   C     90.16000000    82.01000000    62.53000000
   O     90.47000000    83.16000000    62.22000000
   C     92.68000000    81.53000000    62.96000000
   C     92.89000000    82.47000000    64.13000000
   O     93.57000000    80.48000000    63.26000000
   H     91.74000000    79.90000000    61.36000000
   H     90.99000000    80.71000000    64.01000000
   H     92.99000000    81.94000000    61.99000000
   H     94.42000000    80.77000000    62.91000000
   H     92.35000000    82.11000000    65.01000000
   H     93.96000000    82.60000000    64.34000000
   H     92.48000000    83.45000000    63.90000000
   N     88.88000000    81.64000000    62.41000000
   C     87.78000000    82.33000000    61.75000000
   C     86.86000000    83.01000000    62.74000000
   O     86.51000000    82.48000000    63.79000000
   C     86.95000000    81.38000000    60.89000000
   C     87.39000000    81.28000000    59.43000000
   C     86.62000000    80.06000000    61.58000000
   C     88.75000000    80.65000000    59.15000000
   H     88.64000000    80.73000000    62.76000000
   H     88.17000000    83.18000000    61.20000000
   H     85.96000000    81.83000000    60.84000000
   H     87.33000000    82.27000000    58.99000000
   H     86.63000000    80.63000000    59.00000000
   H     86.29000000    80.25000000    62.60000000
   H     85.79000000    79.53000000    61.10000000
   H     87.41000000    79.31000000    61.56000000
   H     89.58000000    81.34000000    59.28000000
   H     88.97000000    79.82000000    59.83000000
   H     88.79000000    80.30000000    58.12000000
   N     86.36000000    84.21000000    62.44000000
   C     85.57000000    85.13000000    63.23000000
   C     84.56000000    85.84000000    62.33000000
   O     84.72000000    85.99000000    61.13000000
   C     86.34000000    86.08000000    64.14000000
   C     87.43000000    86.85000000    63.41000000
   O     88.59000000    86.41000000    63.22000000
   O     87.11000000    87.92000000    62.85000000
   H     86.58000000    84.65000000    61.55000000
   H     84.99000000    84.54000000    63.95000000
   H     86.84000000    85.64000000    65.00000000
   H     85.58000000    86.72000000    64.61000000
   N     83.41000000    86.19000000    62.91000000
   C     82.29000000    86.89000000    62.32000000
   C     81.82000000    86.20000000    61.05000000
   O     81.37000000    85.06000000    61.08000000
   C     81.13000000    87.04000000    63.29000000
   C     80.08000000    88.02000000    62.84000000
   C     78.94000000    87.50000000    62.21000000
   C     80.25000000    89.40000000    63.02000000
   C     77.92000000    88.37000000    61.80000000
   C     79.23000000    90.25000000    62.60000000
   C     78.07000000    89.74000000    61.99000000
   H     83.39000000    86.02000000    63.91000000
   H     82.56000000    87.93000000    62.12000000
   H     81.47000000    87.42000000    64.25000000
   H     80.69000000    86.06000000    63.48000000
   H     78.95000000    86.44000000    62.00000000
   H     81.17000000    89.85000000    63.38000000
   H     76.96000000    88.02000000    61.43000000
   H     79.45000000    91.31000000    62.67000000
   H     77.34000000    90.46000000    61.66000000
   N     81.87000000    86.86000000    59.89000000
   C     81.42000000    86.33000000    58.61000000
   C     82.40000000    85.30000000    58.06000000
   O     82.19000000    84.57000000    57.10000000
   C     81.34000000    87.55000000    57.70000000
   C     82.40000000    88.52000000    58.22000000
   C     82.30000000    88.23000000    59.72000000
   H     80.46000000    85.82000000    58.69000000
   H     81.51000000    87.32000000    56.65000000
   H     80.41000000    88.11000000    57.83000000
   H     83.37000000    88.18000000    57.87000000
   H     82.29000000    89.58000000    58.01000000
   H     83.32000000    88.26000000    60.11000000
   H     81.54000000    88.94000000    60.06000000
   N     83.62000000    85.27000000    58.61000000
   C     84.66000000    84.48000000    57.99000000
   C     84.43000000    82.98000000    58.13000000
   O     84.78000000    82.18000000    57.26000000
   C     85.96000000    84.97000000    58.61000000
   C     86.36000000    86.44000000    58.50000000
   C     87.42000000    86.88000000    59.50000000
   O     88.22000000    86.08000000    60.03000000
   O     87.61000000    88.11000000    59.57000000
   H     83.90000000    85.93000000    59.32000000
   H     84.81000000    84.61000000    56.92000000
   H     86.72000000    84.43000000    58.04000000
   H     86.09000000    84.63000000    59.63000000
   H     85.45000000    87.05000000    58.54000000
   H     86.79000000    86.59000000    57.51000000
   N     83.67000000    82.56000000    59.14000000
   C     83.20000000    81.20000000    59.25000000
   H     82.23400000    81.10900000    58.75400000
   H     83.91600000    80.52800000    58.77700000
   H     83.09400000    80.93600000    60.30200000
   H     83.42000000    83.20000000    59.89000000
  Ca     89.49000000    88.02000000    61.36000000
   O     91.54000000    85.68000000    61.54000000
   H     91.22000000    84.82000000    61.82000000
   H     91.88000000    85.54000000    60.66000000
   O     89.50000000    90.53000000    60.73000000
   H     89.41000000    91.01000000    59.91000000
   H     90.19000000    90.98000000    61.21000000
   O     92.14000000    88.62000000    61.49000000
   H     92.40000000    88.93000000    62.36000000
   H     92.35000000    89.34000000    60.90000000
   O     90.62000000    87.64000000    58.86000000
   H     91.50000000    87.28000000    58.91000000
   H     90.50000000    87.84000000    57.93000000

Ca 1.00



