%chk=loop2.apoCaM-CA-Ng.Init293.run82.water7.chk
%nprocshared=20
%mem=10GB
%nosave
#b3lyp/svp scf=(tight,noincore,xqc) Test 
#IOP(5/87=12) Density=Current Pop=(MK,readradii) iop(6/33=2) iop(6/42=6)

loop2.apoCaM-CA-Ng.Init293.run82.water7 

   -2  1 
   C     75.22000000    86.71000000    16.09000000
   C     76.09000000    87.95000000    15.92000000
   O     75.63000000    89.06000000    16.18000000
   H     74.27600000    86.85400000    15.56400000
   H     75.73600000    85.84400000    15.67700000
   H     75.02400000    86.54600000    17.15000000
   N     77.35000000    87.73000000    15.56000000
   C     78.31000000    88.78000000    15.26000000
   C     77.85000000    89.43000000    13.96000000
   O     78.04000000    90.63000000    13.80000000
   C     79.70000000    88.20000000    15.04000000
   C     80.82000000    89.18000000    14.71000000
   O     81.12000000    90.11000000    15.48000000
   O     81.38000000    88.98000000    13.61000000
   H     77.66000000    86.77000000    15.42000000
   H     78.28000000    89.52000000    16.06000000
   H     79.70000000    87.42000000    14.28000000
   H     80.05000000    87.62000000    15.90000000
   N     77.26000000    88.70000000    13.01000000
   C     76.94000000    89.15000000    11.67000000
   C     76.08000000    90.40000000    11.64000000
   O     76.25000000    91.31000000    10.82000000
   C     78.13000000    89.29000000    10.73000000
   H     76.97000000    87.77000000    13.27000000
   H     76.27000000    88.34000000    11.35000000
   H     77.74000000    89.54000000     9.75000000
   H     78.91000000    89.97000000    11.07000000
   H     78.62000000    88.32000000    10.57000000
   N     75.11000000    90.45000000    12.55000000
   C     74.27000000    91.57000000    12.93000000
   C     74.93000000    92.93000000    13.09000000
   O     74.45000000    93.95000000    12.60000000
   C     73.04000000    91.51000000    12.02000000
   C     72.44000000    90.13000000    11.82000000
   O     72.43000000    89.28000000    12.74000000
   O     71.98000000    89.84000000    10.70000000
   H     74.91000000    89.56000000    12.98000000
   H     73.86000000    91.35000000    13.91000000
   H     73.40000000    91.69000000    11.01000000
   H     72.31000000    92.29000000    12.27000000
   N     76.08000000    93.02000000    13.76000000
   C     76.64000000    94.26000000    14.25000000
   C     75.70000000    94.89000000    15.27000000
   O     75.13000000    94.18000000    16.10000000
   H     76.70000000    92.22000000    13.78000000
   H     76.76000000    94.95000000    13.41000000
   H     77.58000000    93.98000000    14.72000000
   N     75.60000000    96.22000000    15.25000000
   C     74.66000000    97.01000000    16.02000000
   C     74.68000000    96.81000000    17.53000000
   O     73.69000000    96.62000000    18.23000000
   C     73.23000000    96.86000000    15.50000000
   C     73.06000000    97.49000000    14.12000000
   N     73.42000000    96.77000000    13.05000000
   O     72.61000000    98.62000000    13.99000000
   H     76.23000000    96.70000000    14.62000000
   H     75.03000000    98.02000000    15.84000000
   H     72.51000000    97.27000000    16.21000000
   H     73.01000000    95.80000000    15.41000000
   H     73.65000000    95.82000000    13.28000000
   H     73.58000000    97.11000000    12.12000000
   N     75.91000000    96.73000000    18.03000000
   C     76.23000000    96.59000000    19.44000000
   C     76.37000000    95.13000000    19.85000000
   O     77.19000000    94.84000000    20.71000000
   H     76.72000000    96.74000000    17.43000000
   H     75.42000000    97.07000000    19.99000000
   H     77.18000000    97.11000000    19.59000000
   N     75.65000000    94.24000000    19.15000000
   C     75.66000000    92.81000000    19.37000000
   C     74.29000000    92.22000000    19.65000000
   O     73.28000000    92.74000000    19.18000000
   C     76.27000000    92.06000000    18.19000000
   C     77.71000000    92.45000000    17.88000000
   O     76.26000000    90.66000000    18.35000000
   H     74.99000000    94.61000000    18.48000000
   H     76.11000000    92.54000000    20.33000000
   H     75.75000000    92.36000000    17.28000000
   H     76.07000000    90.25000000    17.50000000
   H     78.15000000    92.01000000    16.99000000
   H     77.80000000    93.53000000    17.98000000
   H     78.28000000    92.31000000    18.80000000
   N     74.23000000    91.11000000    20.39000000
   C     72.97000000    90.57000000    20.85000000
   C     72.06000000    90.21000000    19.69000000
   O     72.45000000    89.77000000    18.61000000
   C     73.38000000    89.35000000    21.68000000
   C     73.97000000    89.77000000    23.02000000
   C     72.29000000    88.35000000    22.03000000
   C     74.98000000    88.80000000    23.62000000
   H     75.08000000    90.64000000    20.66000000
   H     72.42000000    91.28000000    21.47000000
   H     74.21000000    88.92000000    21.12000000
   H     73.20000000    89.91000000    23.78000000
   H     74.40000000    90.77000000    22.99000000
   H     71.38000000    88.78000000    22.46000000
   H     72.10000000    87.76000000    21.13000000
   H     72.64000000    87.56000000    22.70000000
   H     75.49000000    89.26000000    24.47000000
   H     74.54000000    87.88000000    24.02000000
   H     75.74000000    88.68000000    22.85000000
   N     70.75000000    90.42000000    19.81000000
   C     69.85000000    90.53000000    18.68000000
   C     69.33000000    91.95000000    18.53000000
   O     68.12000000    92.17000000    18.62000000
   C     68.84000000    89.39000000    18.67000000
   C     68.13000000    89.22000000    17.33000000
   O     68.68000000    89.58000000    16.27000000
   O     66.95000000    88.82000000    17.15000000
   H     70.29000000    90.61000000    20.69000000
   H     70.38000000    90.45000000    17.73000000
   H     68.05000000    89.71000000    19.34000000
   H     69.24000000    88.44000000    19.03000000
   N     70.22000000    92.94000000    18.42000000
   C     69.88000000    94.30000000    18.07000000
   C     70.29000000    95.41000000    19.03000000
   O     70.22000000    96.56000000    18.60000000
   C     70.34000000    94.46000000    16.62000000
   C     69.67000000    95.50000000    15.76000000
   C     70.25000000    95.93000000    14.56000000
   C     68.46000000    96.09000000    16.16000000
   C     69.59000000    96.88000000    13.76000000
   C     67.82000000    97.05000000    15.37000000
   C     68.33000000    97.39000000    14.11000000
   H     71.18000000    92.73000000    18.63000000
   H     68.79000000    94.27000000    18.10000000
   H     70.19000000    93.49000000    16.14000000
   H     71.40000000    94.68000000    16.70000000
   H     71.11000000    95.38000000    14.22000000
   H     67.92000000    95.75000000    17.03000000
   H     69.96000000    97.13000000    12.78000000
   H     66.90000000    97.53000000    15.65000000
   H     67.79000000    98.09000000    13.49000000
   N     70.81000000    95.16000000    20.24000000
   C     70.92000000    93.96000000    21.04000000
   C     69.64000000    93.35000000    21.59000000
   O     69.62000000    92.13000000    21.71000000
   C     71.92000000    94.23000000    22.17000000
   C     71.61000000    95.71000000    22.41000000
   C     71.47000000    96.22000000    20.98000000
   H     71.40000000    93.18000000    20.45000000
   H     71.62000000    93.72000000    23.08000000
   H     73.00000000    94.20000000    22.02000000
   H     70.68000000    95.77000000    22.96000000
   H     72.35000000    96.26000000    23.00000000
   H     71.04000000    97.21000000    20.93000000
   H     72.48000000    96.31000000    20.57000000
   N     68.65000000    94.17000000    21.93000000
   C     67.43000000    93.86000000    22.64000000
   C     67.61000000    93.02000000    23.90000000
   O     67.08000000    91.91000000    23.96000000
   C     66.48000000    93.19000000    21.65000000
   C     66.05000000    94.10000000    20.50000000
   C     65.46000000    95.38000000    21.07000000
   O     64.45000000    95.23000000    21.80000000
   O     66.04000000    96.48000000    20.92000000
   H     68.84000000    95.16000000    21.79000000
   H     66.96000000    94.78000000    23.00000000
   H     65.57000000    92.87000000    22.16000000
   H     66.96000000    92.27000000    21.33000000
   H     65.28000000    93.63000000    19.89000000
   H     66.89000000    94.37000000    19.85000000
   N     68.44000000    93.47000000    24.84000000
   C     68.91000000    92.81000000    26.04000000
   H     69.79500000    93.32500000    26.41400000
   H     68.12800000    92.83500000    26.79900000
   H     69.16200000    91.77500000    25.81100000
   H     68.68000000    94.44000000    24.71000000
  Ca     70.53000000    88.87000000    14.55000000
   O     72.77000000    89.76000000    15.99000000
   H     73.71000000    89.92000000    15.94000000
   H     72.59000000    89.69000000    16.93000000
   O     71.22000000    87.76000000    17.18000000
   H     71.41000000    88.29000000    17.95000000
   H     71.25000000    86.86000000    17.50000000
   O     71.51000000    86.40000000    14.43000000
   H     71.00000000    85.73000000    14.89000000
   H     72.15000000    85.90000000    13.92000000
   O     69.07000000    90.50000000    12.75000000
   H     69.45000000    91.37000000    12.83000000
   H     68.21000000    90.65000000    12.36000000
   O     71.11000000    91.64000000    14.56000000
   H     71.60000000    92.01000000    15.30000000
   H     71.01000000    92.38000000    13.95000000
   O     70.42000000    87.88000000    11.95000000
   H     69.88000000    88.12000000    11.19000000
   H     71.21000000    88.41000000    11.84000000
   O     68.73000000    86.82000000    14.60000000
   H     69.25000000    86.02000000    14.69000000
   H     67.85000000    86.51000000    14.38000000

Ca 1.00



