%chk=loop2.holoCaM.run89.water1.chk
%nprocshared=20
%mem=10GB
%nosave
#b3lyp/svp scf=(tight,noincore,xqc) Test 
#IOP(5/87=12) Density=Current Pop=(MK,readradii) iop(6/33=2) iop(6/42=6)

loop2.holoCaM.run89.water1 

   -2  1 
   C     46.95000000    82.06000000    39.87000000
   C     46.24000000    82.18000000    41.21000000
   O     46.01000000    81.19000000    41.90000000
   H     47.95500000    81.66900000    40.02600000
   H     46.39300000    81.38200000    39.22300000
   H     47.01200000    83.04200000    39.40200000
   N     45.64000000    83.34000000    41.48000000
   C     44.82000000    83.72000000    42.61000000
   C     43.41000000    83.14000000    42.59000000
   O     42.55000000    83.53000000    41.81000000
   C     44.85000000    85.25000000    42.67000000
   C     44.09000000    85.83000000    43.85000000
   O     43.71000000    85.14000000    44.82000000
   O     43.71000000    87.02000000    43.85000000
   H     45.63000000    84.05000000    40.76000000
   H     45.25000000    83.30000000    43.52000000
   H     44.52000000    85.74000000    41.75000000
   H     45.90000000    85.49000000    42.83000000
   N     43.14000000    82.28000000    43.57000000
   C     41.91000000    81.51000000    43.65000000
   C     40.73000000    82.27000000    44.25000000
   O     39.61000000    81.76000000    44.18000000
   C     42.26000000    80.28000000    44.48000000
   H     43.83000000    82.13000000    44.29000000
   H     41.65000000    81.22000000    42.64000000
   H     42.62000000    80.56000000    45.47000000
   H     41.45000000    79.59000000    44.73000000
   H     43.01000000    79.62000000    44.03000000
   N     40.88000000    83.50000000    44.73000000
   C     39.93000000    84.24000000    45.53000000
   C     39.30000000    85.42000000    44.79000000
   O     38.20000000    85.87000000    45.07000000
   C     40.76000000    84.74000000    46.71000000
   C     41.40000000    83.62000000    47.51000000
   O     40.86000000    82.49000000    47.58000000
   O     42.45000000    83.93000000    48.11000000
   H     41.77000000    83.97000000    44.60000000
   H     39.12000000    83.59000000    45.85000000
   H     40.11000000    85.32000000    47.37000000
   H     41.50000000    85.49000000    46.42000000
   N     40.01000000    85.93000000    43.78000000
   C     39.65000000    87.22000000    43.22000000
   C     39.82000000    88.33000000    44.25000000
   O     39.11000000    89.33000000    44.27000000
   H     40.78000000    85.41000000    43.38000000
   H     38.61000000    87.28000000    42.91000000
   H     40.33000000    87.48000000    42.41000000
   N     40.91000000    88.29000000    45.02000000
   C     41.23000000    89.32000000    45.99000000
   C     42.48000000    90.10000000    45.61000000
   O     42.64000000    91.26000000    45.99000000
   C     41.26000000    88.63000000    47.35000000
   C     42.64000000    88.16000000    47.80000000
   N     43.13000000    88.83000000    48.85000000
   O     43.31000000    87.27000000    47.28000000
   H     41.55000000    87.53000000    44.85000000
   H     40.42000000    90.04000000    46.10000000
   H     40.54000000    87.81000000    47.42000000
   H     40.83000000    89.35000000    48.03000000
   H     42.57000000    89.51000000    49.34000000
   H     43.92000000    88.46000000    49.35000000
   N     43.33000000    89.62000000    44.69000000
   C     44.42000000    90.37000000    44.10000000
   C     45.81000000    90.08000000    44.66000000
   O     46.71000000    90.90000000    44.49000000
   H     43.30000000    88.67000000    44.34000000
   H     44.22000000    91.43000000    43.99000000
   H     44.43000000    89.93000000    43.10000000
   N     45.99000000    89.03000000    45.45000000
   C     47.17000000    88.66000000    46.20000000
   C     47.41000000    87.16000000    46.29000000
   O     46.47000000    86.41000000    46.01000000
   C     46.96000000    89.26000000    47.59000000
   C     48.04000000    88.98000000    48.64000000
   O     46.83000000    90.66000000    47.55000000
   H     45.19000000    88.40000000    45.50000000
   H     48.02000000    89.10000000    45.68000000
   H     46.14000000    88.72000000    48.06000000
   H     46.34000000    90.89000000    48.33000000
   H     47.86000000    87.99000000    49.05000000
   H     49.03000000    88.97000000    48.18000000
   H     47.92000000    89.68000000    49.46000000
   N     48.64000000    86.72000000    46.56000000
   C     49.04000000    85.33000000    46.51000000
   C     49.27000000    84.89000000    47.95000000
   O     50.12000000    85.37000000    48.70000000
   C     50.24000000    85.03000000    45.62000000
   C     50.07000000    85.23000000    44.12000000
   C     50.96000000    83.69000000    45.80000000
   C     49.05000000    84.25000000    43.53000000
   H     49.36000000    87.43000000    46.54000000
   H     48.26000000    84.65000000    46.16000000
   H     50.95000000    85.78000000    45.95000000
   H     51.06000000    85.09000000    43.68000000
   H     49.76000000    86.26000000    43.97000000
   H     51.33000000    83.52000000    46.81000000
   H     50.37000000    82.82000000    45.51000000
   H     51.93000000    83.65000000    45.31000000
   H     48.08000000    84.47000000    43.97000000
   H     49.03000000    84.50000000    42.48000000
   H     49.33000000    83.19000000    43.62000000
   N     48.60000000    83.79000000    48.28000000
   C     48.76000000    82.88000000    49.40000000
   C     49.83000000    81.82000000    49.14000000
   O     50.08000000    81.46000000    47.99000000
   C     47.42000000    82.22000000    49.71000000
   C     46.25000000    83.18000000    49.86000000
   O     45.27000000    83.07000000    49.10000000
   O     46.35000000    84.06000000    50.75000000
   H     47.94000000    83.53000000    47.56000000
   H     49.13000000    83.34000000    50.32000000
   H     47.52000000    81.73000000    50.68000000
   H     47.21000000    81.43000000    49.00000000
   N     50.40000000    81.20000000    50.17000000
   C     51.35000000    80.13000000    49.93000000
   C     50.73000000    78.90000000    49.28000000
   O     51.30000000    78.39000000    48.32000000
   C     52.16000000    79.85000000    51.20000000
   C     52.88000000    78.53000000    51.12000000
   C     53.94000000    78.37000000    50.22000000
   C     52.33000000    77.40000000    51.73000000
   C     54.50000000    77.10000000    50.03000000
   C     53.03000000    76.19000000    51.70000000
   C     54.07000000    76.01000000    50.79000000
   H     50.05000000    81.38000000    51.10000000
   H     52.11000000    80.54000000    49.27000000
   H     51.47000000    79.90000000    52.05000000
   H     52.93000000    80.61000000    51.30000000
   H     54.45000000    79.25000000    49.84000000
   H     51.34000000    77.47000000    52.17000000
   H     55.40000000    76.98000000    49.45000000
   H     52.67000000    75.39000000    52.33000000
   H     54.61000000    75.07000000    50.81000000
   N     49.48000000    78.52000000    49.55000000
   C     48.87000000    77.51000000    48.71000000
   C     48.93000000    77.82000000    47.22000000
   O     49.17000000    76.96000000    46.37000000
   C     47.48000000    77.32000000    49.30000000
   C     47.55000000    77.71000000    50.77000000
   C     48.68000000    78.74000000    50.73000000
   H     49.41000000    76.56000000    48.77000000
   H     46.75000000    78.01000000    48.88000000
   H     47.06000000    76.32000000    49.15000000
   H     46.61000000    78.20000000    50.99000000
   H     47.85000000    76.82000000    51.32000000
   H     48.24000000    79.73000000    50.60000000
   H     49.32000000    78.58000000    51.60000000
   N     48.50000000    79.01000000    46.78000000
   C     48.44000000    79.50000000    45.42000000
   C     49.86000000    79.69000000    44.89000000
   O     50.08000000    79.37000000    43.72000000
   C     47.80000000    80.88000000    45.48000000
   C     46.35000000    80.84000000    45.94000000
   C     45.73000000    82.21000000    46.19000000
   O     46.45000000    83.18000000    46.51000000
   O     44.49000000    82.34000000    46.10000000
   H     48.39000000    79.62000000    47.58000000
   H     47.83000000    78.88000000    44.76000000
   H     47.71000000    81.26000000    44.46000000
   H     48.44000000    81.60000000    45.99000000
   H     46.22000000    80.29000000    46.88000000
   H     45.80000000    80.15000000    45.30000000
   N     50.90000000    79.91000000    45.70000000
   C     52.27000000    79.75000000    45.26000000
   H     52.92200000    79.66200000    46.12900000
   H     52.35400000    78.85000000    44.65100000
   H     52.56600000    80.61700000    44.67000000
   H     50.79000000    80.09000000    46.69000000
  Ca     44.52000000    84.84000000    47.20000000
   O     45.72000000    86.23000000    49.10000000
   H     45.60000000    86.93000000    49.73000000
   H     45.94000000    85.46000000    49.63000000

Ca 1.00



