%chk=loop1.apoCaM-CA-Ng.Init293.run4.water3.chk
%nprocshared=20
%mem=10GB
%nosave
#b3lyp/svp scf=(tight,noincore,xqc) Test 
#IOP(5/87=12) Density=Current Pop=(MK,readradii) iop(6/33=2) iop(6/42=6)

loop1.apoCaM-CA-Ng.Init293.run4.water3 

   0  1 
   C     41.89000000    36.08000000    28.07000000
   C     41.39000000    35.83000000    26.65000000
   O     41.79000000    36.43000000    25.66000000
   H     42.76300000    36.73200000    28.03800000
   H     41.10300000    36.55600000    28.65400000
   H     42.16300000    35.13100000    28.53200000
   N     40.56000000    34.79000000    26.62000000
   C     39.97000000    34.25000000    25.41000000
   C     38.50000000    34.58000000    25.25000000
   O     37.84000000    33.86000000    24.50000000
   C     40.34000000    32.77000000    25.36000000
   C     40.16000000    31.89000000    26.59000000
   O     39.64000000    32.30000000    27.65000000
   O     40.61000000    30.72000000    26.61000000
   H     40.24000000    34.38000000    27.48000000
   H     40.42000000    34.74000000    24.55000000
   H     41.40000000    32.72000000    25.11000000
   H     39.92000000    32.23000000    24.51000000
   N     38.00000000    35.55000000    26.02000000
   C     36.63000000    36.03000000    25.90000000
   C     36.63000000    37.54000000    25.71000000
   O     36.96000000    38.28000000    26.64000000
   C     35.79000000    35.61000000    27.10000000
   C     35.76000000    34.12000000    27.42000000
   C     35.10000000    33.29000000    26.32000000
   C     35.23000000    31.81000000    26.66000000
   N     34.50000000    31.03000000    25.64000000
   H     38.64000000    36.12000000    26.55000000
   H     36.24000000    35.58000000    24.99000000
   H     34.75000000    35.83000000    26.86000000
   H     36.10000000    36.16000000    27.99000000
   H     35.25000000    34.02000000    28.38000000
   H     36.80000000    33.81000000    27.57000000
   H     35.62000000    33.42000000    25.37000000
   H     34.08000000    33.60000000    26.09000000
   H     34.87000000    31.61000000    27.67000000
   H     36.30000000    31.61000000    26.60000000
   H     34.79000000    31.15000000    24.68000000
   H     34.57000000    30.06000000    25.91000000
   H     33.53000000    31.34000000    25.64000000
   N     36.24000000    38.09000000    24.56000000
   C     35.88000000    37.47000000    23.30000000
   C     34.64000000    36.59000000    23.37000000
   O     34.07000000    36.33000000    24.43000000
   C     37.05000000    37.02000000    22.44000000
   C     38.37000000    37.54000000    22.99000000
   O     39.27000000    36.70000000    23.20000000
   O     38.72000000    38.74000000    23.04000000
   H     36.32000000    39.09000000    24.56000000
   H     35.60000000    38.34000000    22.70000000
   H     36.88000000    37.37000000    21.42000000
   H     37.03000000    35.94000000    22.55000000
   N     34.06000000    36.16000000    22.24000000
   C     34.47000000    36.45000000    20.89000000
   C     33.69000000    35.58000000    19.91000000
   O     32.54000000    35.19000000    20.13000000
   H     33.18000000    35.68000000    22.22000000
   H     35.45000000    35.97000000    20.87000000
   H     34.33000000    37.46000000    20.50000000
   N     34.31000000    34.98000000    18.90000000
   C     35.72000000    34.90000000    18.56000000
   C     36.47000000    34.12000000    19.62000000
   O     35.88000000    33.21000000    20.20000000
   C     35.94000000    34.32000000    17.17000000
   C     35.37000000    35.20000000    16.07000000
   O     35.33000000    36.43000000    16.31000000
   O     35.12000000    34.68000000    14.96000000
   H     33.64000000    34.50000000    18.32000000
   H     36.17000000    35.89000000    18.50000000
   H     35.51000000    33.32000000    17.17000000
   H     37.02000000    34.21000000    17.05000000
   N     37.67000000    34.59000000    20.01000000
   C     38.48000000    33.92000000    21.01000000
   C     39.91000000    33.60000000    20.61000000
   O     40.15000000    32.73000000    19.77000000
   H     38.05000000    35.42000000    19.59000000
   H     38.06000000    32.96000000    21.31000000
   H     38.49000000    34.50000000    21.93000000
   N     40.88000000    34.32000000    21.17000000
   C     42.31000000    34.10000000    21.07000000
   C     43.07000000    34.61000000    22.29000000
   O     42.62000000    35.63000000    22.81000000
   C     42.91000000    34.94000000    19.95000000
   C     42.25000000    34.76000000    18.58000000
   O     44.28000000    34.70000000    19.73000000
   H     40.55000000    35.03000000    21.80000000
   H     42.54000000    33.05000000    20.89000000
   H     42.77000000    35.96000000    20.32000000
   H     44.33000000    33.91000000    19.18000000
   H     41.30000000    35.30000000    18.63000000
   H     42.90000000    35.07000000    17.77000000
   H     42.13000000    33.71000000    18.31000000
   N     44.12000000    33.92000000    22.75000000
   C     44.86000000    34.20000000    23.96000000
   C     46.32000000    34.59000000    23.81000000
   O     46.96000000    35.11000000    24.73000000
   C     44.74000000    33.03000000    24.94000000
   C     44.52000000    33.60000000    26.34000000
   C     45.85000000    31.99000000    24.81000000
   C     44.38000000    32.64000000    27.51000000
   H     44.40000000    33.05000000    22.33000000
   H     44.31000000    35.03000000    24.40000000
   H     43.83000000    32.49000000    24.65000000
   H     43.64000000    34.24000000    26.34000000
   H     45.36000000    34.25000000    26.61000000
   H     45.63000000    31.23000000    25.56000000
   H     45.95000000    31.51000000    23.83000000
   H     46.86000000    32.35000000    24.99000000
   H     43.51000000    32.00000000    27.31000000
   H     45.31000000    32.07000000    27.60000000
   H     44.30000000    33.20000000    28.44000000
   N     46.86000000    34.41000000    22.60000000
   C     48.26000000    34.52000000    22.27000000
   C     48.88000000    35.90000000    22.39000000
   O     50.09000000    36.03000000    22.19000000
   C     48.48000000    34.04000000    20.84000000
   C     47.89000000    34.84000000    19.68000000
   O     47.88000000    32.77000000    20.72000000
   H     46.35000000    33.73000000    22.05000000
   H     48.78000000    33.83000000    22.94000000
   H     49.52000000    33.91000000    20.54000000
   H     48.01000000    32.47000000    19.82000000
   H     46.92000000    34.52000000    19.29000000
   H     47.91000000    35.92000000    19.87000000
   H     48.59000000    34.70000000    18.85000000
   N     48.08000000    36.93000000    22.68000000
   C     48.52000000    38.30000000    22.86000000
   C     48.86000000    38.96000000    21.53000000
   O     49.02000000    38.40000000    20.44000000
   C     49.59000000    38.57000000    23.91000000
   C     49.40000000    37.84000000    25.24000000
   O     49.69000000    39.95000000    24.21000000
   H     47.09000000    36.73000000    22.71000000
   H     47.64000000    38.87000000    23.16000000
   H     50.56000000    38.38000000    23.47000000
   H     50.29000000    40.13000000    24.94000000
   H     49.72000000    36.81000000    25.07000000
   H     50.03000000    38.21000000    26.05000000
   H     48.33000000    37.85000000    25.44000000
   N     48.85000000    40.29000000    21.60000000
   C     49.05000000    41.12000000    20.43000000
   C     47.92000000    41.95000000    19.84000000
   O     48.04000000    42.30000000    18.67000000
   C     50.29000000    42.01000000    20.51000000
   C     51.56000000    41.30000000    20.97000000
   C     52.09000000    40.27000000    19.97000000
   C     53.44000000    39.68000000    20.34000000
   N     54.14000000    38.93000000    19.29000000
   H     48.75000000    40.75000000    22.49000000
   H     49.28000000    40.47000000    19.59000000
   H     50.03000000    42.85000000    21.16000000
   H     50.38000000    42.57000000    19.58000000
   H     51.40000000    40.83000000    21.94000000
   H     52.32000000    42.07000000    21.14000000
   H     52.11000000    40.62000000    18.94000000
   H     51.30000000    39.52000000    19.89000000
   H     53.32000000    38.99000000    21.18000000
   H     54.06000000    40.52000000    20.65000000
   H     54.32000000    39.56000000    18.52000000
   H     55.05000000    38.65000000    19.62000000
   H     53.56000000    38.15000000    19.02000000
   N     46.82000000    42.40000000    20.44000000
   C     46.51000000    42.47000000    21.86000000
   C     47.50000000    43.01000000    22.88000000
   O     47.81000000    42.33000000    23.85000000
   C     45.77000000    41.25000000    22.40000000
   C     44.63000000    40.90000000    21.45000000
   C     43.49000000    40.13000000    22.10000000
   O     42.48000000    40.77000000    22.47000000
   O     43.56000000    38.89000000    22.17000000
   H     46.34000000    43.12000000    19.91000000
   H     45.67000000    43.14000000    21.99000000
   H     45.32000000    41.39000000    23.39000000
   H     46.48000000    40.43000000    22.52000000
   H     45.03000000    40.40000000    20.57000000
   H     44.17000000    41.81000000    21.08000000
   N     47.77000000    44.31000000    22.74000000
   C     48.32000000    45.13000000    23.80000000
   H     49.22100000    45.62800000    23.44300000
   H     47.58600000    45.87800000    24.09900000
   H     48.56800000    44.50100000    24.65500000
   H     47.40000000    44.73000000    21.90000000
  Ca     41.59000000    38.00000000    23.46000000
   O     41.03000000    37.74000000    20.82000000
   H     41.65000000    38.10000000    20.19000000
   H     40.31000000    37.40000000    20.28000000
   O     42.83000000    39.25000000    25.39000000
   H     42.62000000    39.86000000    26.10000000
   H     43.70000000    38.93000000    25.60000000
   O     39.97000000    38.70000000    25.57000000
   H     39.95000000    38.31000000    26.44000000
   H     39.10000000    39.10000000    25.47000000

Ca 1.00



