%chk=loop2.apoCaM-CA-Ng.Init293.run64.water6.chk
%nprocshared=20
%mem=10GB
%nosave
#b3lyp/svp scf=(tight,noincore,xqc) Test 
#IOP(5/87=12) Density=Current Pop=(MK,readradii) iop(6/33=2) iop(6/42=6)

loop2.apoCaM-CA-Ng.Init293.run64.water6 

   -2  1 
   C     94.53000000    82.73000000    36.45000000
   C     95.27000000    82.72000000    37.78000000
   O     94.89000000    83.57000000    38.58000000
   H     93.63300000    83.34300000    36.53800000
   H     95.17700000    83.14300000    35.67700000
   H     94.24800000    81.71200000    36.18300000
   N     96.39000000    82.01000000    37.88000000
   C     97.17000000    81.94000000    39.10000000
   C     98.02000000    83.20000000    39.20000000
   O     98.14000000    83.83000000    40.25000000
   C     97.99000000    80.66000000    39.16000000
   C     98.67000000    80.68000000    40.53000000
   O     98.02000000    80.81000000    41.58000000
   O     99.92000000    80.75000000    40.54000000
   H     96.73000000    81.54000000    37.06000000
   H     96.44000000    81.91000000    39.91000000
   H     98.68000000    80.82000000    38.33000000
   H     97.35000000    79.78000000    39.13000000
   N     98.40000000    83.73000000    38.04000000
   C     99.15000000    84.97000000    37.96000000
   C     98.53000000    86.30000000    38.38000000
   O     99.15000000    87.32000000    38.65000000
   C    100.62000000    84.74000000    38.32000000
   H     98.19000000    83.23000000    37.18000000
   H     99.23000000    85.12000000    36.88000000
   H    100.67000000    84.59000000    39.40000000
   H    100.95000000    83.81000000    37.84000000
   H    101.18000000    85.63000000    38.05000000
   N     97.20000000    86.29000000    38.43000000
   C     96.32000000    87.32000000    38.94000000
   C     96.57000000    87.61000000    40.41000000
   O     96.38000000    88.75000000    40.84000000
   C     96.16000000    88.51000000    38.00000000
   C     95.75000000    88.24000000    36.57000000
   O     95.25000000    87.13000000    36.28000000
   O     95.94000000    89.02000000    35.61000000
   H     96.79000000    85.38000000    38.27000000
   H     95.31000000    86.92000000    38.92000000
   H     97.05000000    89.14000000    38.02000000
   H     95.31000000    89.09000000    38.36000000
   N     97.10000000    86.67000000    41.19000000
   C     97.46000000    86.76000000    42.59000000
   C     96.32000000    87.05000000    43.55000000
   O     95.14000000    86.88000000    43.24000000
   H     97.43000000    85.79000000    40.80000000
   H     98.25000000    87.50000000    42.73000000
   H     97.97000000    85.82000000    42.77000000
   N     96.67000000    87.56000000    44.74000000
   C     95.78000000    88.11000000    45.74000000
   C     94.79000000    87.13000000    46.34000000
   O     93.92000000    87.51000000    47.12000000
   C     95.14000000    89.38000000    45.20000000
   C     96.13000000    90.31000000    44.51000000
   N     96.30000000    90.31000000    43.18000000
   O     96.82000000    91.01000000    45.23000000
   H     97.66000000    87.46000000    44.91000000
   H     96.54000000    88.35000000    46.49000000
   H     94.67000000    90.04000000    45.93000000
   H     94.42000000    89.05000000    44.45000000
   H     95.64000000    89.70000000    42.72000000
   H     96.88000000    90.95000000    42.66000000
   N     94.92000000    85.83000000    46.05000000
   C     94.04000000    84.79000000    46.55000000
   C     93.33000000    84.01000000    45.45000000
   O     92.53000000    83.14000000    45.78000000
   H     95.70000000    85.43000000    45.56000000
   H     93.35000000    85.23000000    47.27000000
   H     94.70000000    84.09000000    47.07000000
   N     93.62000000    84.29000000    44.17000000
   C     93.01000000    83.56000000    43.07000000
   C     91.56000000    83.99000000    42.91000000
   O     91.28000000    85.18000000    42.90000000
   C     93.74000000    83.95000000    41.79000000
   C     95.19000000    83.46000000    41.73000000
   O     93.04000000    83.44000000    40.67000000
   H     94.26000000    85.04000000    43.96000000
   H     93.21000000    82.50000000    43.20000000
   H     93.84000000    85.03000000    41.76000000
   H     93.68000000    83.35000000    39.96000000
   H     95.79000000    83.87000000    42.54000000
   H     95.19000000    82.38000000    41.90000000
   H     95.61000000    83.85000000    40.80000000
   N     90.57000000    83.09000000    42.91000000
   C     89.21000000    83.48000000    42.61000000
   C     89.06000000    84.26000000    41.31000000
   O     89.88000000    84.16000000    40.40000000
   C     88.31000000    82.25000000    42.66000000
   C     88.66000000    81.08000000    41.75000000
   C     87.95000000    81.79000000    44.07000000
   C     87.74000000    79.88000000    41.54000000
   H     90.82000000    82.14000000    43.14000000
   H     88.88000000    84.20000000    43.36000000
   H     87.31000000    82.52000000    42.33000000
   H     89.60000000    80.65000000    42.12000000
   H     88.85000000    81.50000000    40.76000000
   H     88.83000000    81.34000000    44.54000000
   H     87.66000000    82.54000000    44.80000000
   H     87.19000000    81.01000000    43.96000000
   H     87.71000000    79.28000000    42.45000000
   H     86.75000000    80.24000000    41.27000000
   H     88.22000000    79.25000000    40.79000000
   N     88.07000000    85.16000000    41.33000000
   C     88.13000000    86.33000000    40.47000000
   C     88.47000000    87.64000000    41.16000000
   O     87.87000000    88.70000000    40.97000000
   C     86.80000000    86.37000000    39.72000000
   C     86.76000000    87.35000000    38.55000000
   O     85.68000000    87.63000000    38.00000000
   O     87.88000000    87.73000000    38.14000000
   H     87.44000000    85.17000000    42.11000000
   H     88.96000000    86.17000000    39.78000000
   H     86.08000000    86.77000000    40.43000000
   H     86.65000000    85.37000000    39.31000000
   N     89.50000000    87.56000000    42.01000000
   C     90.13000000    88.73000000    42.57000000
   C     89.36000000    89.26000000    43.77000000
   O     89.07000000    90.45000000    43.68000000
   C     91.63000000    88.58000000    42.79000000
   C     92.44000000    89.85000000    42.61000000
   C     92.37000000    90.81000000    43.63000000
   C     93.27000000    90.07000000    41.51000000
   C     93.18000000    91.95000000    43.56000000
   C     94.05000000    91.23000000    41.42000000
   C     94.05000000    92.15000000    42.48000000
   H     89.88000000    86.65000000    42.24000000
   H     90.06000000    89.56000000    41.85000000
   H     92.04000000    87.77000000    42.18000000
   H     91.85000000    88.22000000    43.79000000
   H     91.70000000    90.77000000    44.48000000
   H     93.44000000    89.23000000    40.85000000
   H     93.17000000    92.65000000    44.38000000
   H     94.66000000    91.37000000    40.54000000
   H     94.78000000    92.94000000    42.45000000
   N     89.06000000    88.57000000    44.88000000
   C     89.40000000    87.19000000    45.19000000
   C     88.17000000    86.29000000    45.14000000
   O     88.17000000    85.17000000    45.63000000
   C     89.97000000    87.25000000    46.60000000
   C     89.07000000    88.32000000    47.20000000
   C     88.63000000    89.25000000    46.08000000
   H     90.15000000    86.88000000    44.46000000
   H     89.89000000    86.32000000    47.17000000
   H     91.01000000    87.58000000    46.54000000
   H     88.32000000    87.85000000    47.84000000
   H     89.60000000    89.01000000    47.86000000
   H     87.55000000    89.39000000    46.04000000
   H     89.09000000    90.24000000    46.03000000
   N     87.03000000    86.76000000    44.64000000
   C     85.74000000    86.32000000    45.13000000
   C     85.14000000    85.18000000    44.31000000
   O     85.49000000    85.04000000    43.15000000
   C     84.92000000    87.60000000    45.24000000
   C     83.68000000    87.37000000    46.11000000
   C     82.86000000    88.60000000    46.49000000
   O     82.67000000    88.95000000    47.68000000
   O     82.25000000    89.16000000    45.56000000
   H     86.92000000    87.69000000    44.27000000
   H     85.95000000    85.85000000    46.10000000
   H     84.66000000    87.77000000    44.20000000
   H     85.58000000    88.33000000    45.70000000
   H     83.97000000    86.80000000    46.99000000
   H     83.00000000    86.78000000    45.49000000
   N     84.14000000    84.47000000    44.84000000
   C     83.49000000    83.31000000    44.27000000
   H     82.55600000    83.61400000    43.79600000
   H     84.14400000    82.85600000    43.52600000
   H     83.27900000    82.58700000    45.05800000
   H     83.80000000    84.71000000    45.76000000
  Ca     95.50000000    87.40000000    33.67000000
   O     94.38000000    87.58000000    31.26000000
   H     93.76000000    88.25000000    30.99000000
   H     94.95000000    87.45000000    30.51000000
   O     93.15000000    85.83000000    34.03000000
   H     93.73000000    85.13000000    34.31000000
   H     92.59000000    86.00000000    34.79000000
   O     98.02000000    86.51000000    34.58000000
   H     98.25000000    85.62000000    34.85000000
   H     98.76000000    87.04000000    34.89000000
   O     97.21000000    86.88000000    31.75000000
   H     96.77000000    86.18000000    31.27000000
   H     98.12000000    86.59000000    31.82000000
   O     93.53000000    89.21000000    33.39000000
   H     93.55000000    89.86000000    32.69000000
   H     92.70000000    89.36000000    33.84000000
   O     96.51000000    89.70000000    32.47000000
   H     97.44000000    89.60000000    32.30000000
   H     96.36000000    90.65000000    32.47000000

Ca 1.00



