%chk=loop4.holoCaM.run79.water2.chk
%nprocshared=20
%mem=10GB
%nosave
#b3lyp/svp scf=(tight,noincore,xqc) Test 
#IOP(5/87=12) Density=Current Pop=(MK,readradii) iop(6/33=2) iop(6/42=6)

loop4.holoCaM.run79.water2 

   -3  1 
   C     64.27000000    71.07000000    34.44000000
   C     63.96000000    72.53000000    34.74000000
   O     62.94000000    72.92000000    34.17000000
   H     65.23900000    70.81000000    34.86600000
   H     63.49900000    70.43700000    34.87900000
   H     64.29600000    70.91800000    33.36100000
   N     64.69000000    73.27000000    35.58000000
   C     64.47000000    74.63000000    36.02000000
   C     65.07000000    75.65000000    35.06000000
   O     66.28000000    75.81000000    34.94000000
   C     65.09000000    74.72000000    37.41000000
   C     64.88000000    76.02000000    38.18000000
   O     65.76000000    76.36000000    39.01000000
   O     63.95000000    76.81000000    37.90000000
   H     65.48000000    72.85000000    36.05000000
   H     63.41000000    74.84000000    36.18000000
   H     66.13000000    74.40000000    37.38000000
   H     64.58000000    74.04000000    38.09000000
   N     64.17000000    76.34000000    34.35000000
   C     64.48000000    77.08000000    33.14000000
   C     64.94000000    78.48000000    33.55000000
   O     65.94000000    78.88000000    32.95000000
   C     63.42000000    77.09000000    32.05000000
   C     63.35000000    75.74000000    31.35000000
   C     63.47000000    78.22000000    31.03000000
   C     61.89000000    75.49000000    30.98000000
   H     63.22000000    76.25000000    34.66000000
   H     65.32000000    76.60000000    32.64000000
   H     62.46000000    77.25000000    32.54000000
   H     63.69000000    74.89000000    31.94000000
   H     63.90000000    75.85000000    30.41000000
   H     62.77000000    78.17000000    30.19000000
   H     63.33000000    79.19000000    31.50000000
   H     64.44000000    78.19000000    30.54000000
   H     61.74000000    74.62000000    30.34000000
   H     61.20000000    75.47000000    31.83000000
   H     61.55000000    76.38000000    30.46000000
   N     64.25000000    79.27000000    34.37000000
   C     64.62000000    80.53000000    34.96000000
   C     65.56000000    80.47000000    36.16000000
   O     66.25000000    81.47000000    36.33000000
   C     63.40000000    81.42000000    35.20000000
   C     62.32000000    80.64000000    35.94000000
   O     61.14000000    81.03000000    35.86000000
   O     62.67000000    79.79000000    36.79000000
   H     63.50000000    78.71000000    34.77000000
   H     65.23000000    81.05000000    34.23000000
   H     63.13000000    81.81000000    34.22000000
   H     63.66000000    82.21000000    35.91000000
   N     65.61000000    79.40000000    36.96000000
   C     66.67000000    79.25000000    37.93000000
   C     66.37000000    79.85000000    39.30000000
   O     66.57000000    81.04000000    39.55000000
   H     65.02000000    78.60000000    36.77000000
   H     67.57000000    79.69000000    37.51000000
   H     67.08000000    78.25000000    38.04000000
   N     65.82000000    79.05000000    40.21000000
   C     65.28000000    79.36000000    41.51000000
   C     65.41000000    78.16000000    42.44000000
   O     65.82000000    78.27000000    43.60000000
   C     63.91000000    80.03000000    41.60000000
   C     62.84000000    79.22000000    40.88000000
   O     62.55000000    79.55000000    39.71000000
   O     62.31000000    78.27000000    41.51000000
   H     65.81000000    78.06000000    39.97000000
   H     65.83000000    80.16000000    42.00000000
   H     63.92000000    81.04000000    41.19000000
   H     63.68000000    80.35000000    42.61000000
   N     65.11000000    76.99000000    41.87000000
   C     65.21000000    75.74000000    42.60000000
   C     63.90000000    74.97000000    42.62000000
   O     63.90000000    73.79000000    42.98000000
   H     64.91000000    76.97000000    40.88000000
   H     65.45000000    75.99000000    43.64000000
   H     65.94000000    75.05000000    42.19000000
   N     62.77000000    75.50000000    42.17000000
   C     61.53000000    74.80000000    41.94000000
   C     61.22000000    74.68000000    40.45000000
   O     61.53000000    75.54000000    39.63000000
   C     60.39000000    75.42000000    42.74000000
   C     60.61000000    75.54000000    44.25000000
   C     59.46000000    76.11000000    45.07000000
   N     59.16000000    77.40000000    44.92000000
   O     58.82000000    75.43000000    45.87000000
   H     62.85000000    76.41000000    41.74000000
   H     61.61000000    73.75000000    42.22000000
   H     59.44000000    74.89000000    42.65000000
   H     60.28000000    76.45000000    42.43000000
   H     61.51000000    76.13000000    44.43000000
   H     60.78000000    74.50000000    44.50000000
   H     59.74000000    77.99000000    44.35000000
   H     58.32000000    77.79000000    45.33000000
   N     60.57000000    73.59000000    40.03000000
   C     59.71000000    73.66000000    38.86000000
   C     58.28000000    74.09000000    39.16000000
   O     57.77000000    73.52000000    40.12000000
   C     59.81000000    72.38000000    38.04000000
   C     61.19000000    72.21000000    37.42000000
   C     59.39000000    71.05000000    38.66000000
   H     60.38000000    72.81000000    40.64000000
   H     60.11000000    74.50000000    38.30000000
   H     59.06000000    72.53000000    37.27000000
   H     61.93000000    71.87000000    38.14000000
   H     61.16000000    71.52000000    36.58000000
   H     61.50000000    73.14000000    36.94000000
   H     59.38000000    70.15000000    38.03000000
   H     60.04000000    70.69000000    39.46000000
   H     58.41000000    71.11000000    39.12000000
   N     57.78000000    75.12000000    38.47000000
   C     56.35000000    75.39000000    38.40000000
   C     55.70000000    74.58000000    37.29000000
   O     56.44000000    73.86000000    36.62000000
   C     56.22000000    76.90000000    38.34000000
   C     55.97000000    77.50000000    36.96000000
   N     57.03000000    77.91000000    36.25000000
   O     54.83000000    77.49000000    36.49000000
   H     58.43000000    75.53000000    37.82000000
   H     55.93000000    75.07000000    39.36000000
   H     57.10000000    77.39000000    38.75000000
   H     55.33000000    77.22000000    38.89000000
   H     57.83000000    78.17000000    36.81000000
   H     56.81000000    78.33000000    35.36000000
   N     54.37000000    74.60000000    37.15000000
   C     53.67000000    73.87000000    36.12000000
   C     54.15000000    74.17000000    34.70000000
   O     54.11000000    73.24000000    33.90000000
   C     52.17000000    74.15000000    36.21000000
   C     51.18000000    73.26000000    35.50000000
   C     51.34000000    71.88000000    35.62000000
   C     50.09000000    73.75000000    34.78000000
   C     50.45000000    71.03000000    34.96000000
   C     49.12000000    72.94000000    34.18000000
   C     49.35000000    71.56000000    34.26000000
   O     48.54000000    70.67000000    33.61000000
   H     53.82000000    75.18000000    37.77000000
   H     53.80000000    72.81000000    36.33000000
   H     52.09000000    75.20000000    35.91000000
   H     51.93000000    74.06000000    37.27000000
   H     52.08000000    71.44000000    36.28000000
   H     49.93000000    74.82000000    34.82000000
   H     50.55000000    69.95000000    35.00000000
   H     48.37000000    73.32000000    33.49000000
   H     47.82000000    71.19000000    33.25000000
   N     54.47000000    75.41000000    34.32000000
   C     55.02000000    75.72000000    33.01000000
   C     56.28000000    74.95000000    32.63000000
   O     56.50000000    74.50000000    31.51000000
   C     55.22000000    77.23000000    32.95000000
   C     55.65000000    77.71000000    31.57000000
   C     55.71000000    79.23000000    31.50000000
   O     54.73000000    79.90000000    31.90000000
   O     56.77000000    79.74000000    31.10000000
   H     54.42000000    76.23000000    34.91000000
   H     54.36000000    75.48000000    32.18000000
   H     55.97000000    77.51000000    33.69000000
   H     54.29000000    77.75000000    33.20000000
   H     54.94000000    77.35000000    30.83000000
   H     56.63000000    77.23000000    31.43000000
   N     57.15000000    74.71000000    33.62000000
   C     58.35000000    73.91000000    33.51000000
   C     58.00000000    72.43000000    33.59000000
   O     58.68000000    71.59000000    33.01000000
   C     59.24000000    74.26000000    34.70000000
   C     59.54000000    75.76000000    34.64000000
   C     60.44000000    76.24000000    35.77000000
   O     59.95000000    76.28000000    36.92000000
   O     61.56000000    76.75000000    35.55000000
   H     56.86000000    74.94000000    34.56000000
   H     59.01000000    74.23000000    32.70000000
   H     60.18000000    73.71000000    34.65000000
   H     58.73000000    73.99000000    35.62000000
   H     58.68000000    76.44000000    34.65000000
   H     60.02000000    75.93000000    33.68000000
   N     56.88000000    72.04000000    34.20000000
   C     56.49000000    70.65000000    34.33000000
   H     55.52600000    70.49700000    33.84400000
   H     57.24000000    70.01600000    33.85700000
   H     56.40900000    70.39200000    35.38600000
   H     56.24000000    72.77000000    34.47000000
  Ca     61.67000000    77.78000000    38.13000000
   O     59.75000000    79.68000000    37.65000000
   H     58.95000000    79.98000000    38.08000000
   H     59.98000000    80.38000000    37.04000000
   O     59.98000000    77.95000000    40.29000000
   H     60.67000000    77.99000000    40.95000000
   H     59.29000000    78.53000000    40.63000000

Ca 1.00



