%chk=loop3.apoCaM-CA-Ng.Init295.run74.water4.chk
%nprocshared=20
%mem=10GB
%nosave
#b3lyp/svp scf=(tight,noincore,xqc) Test 
#IOP(5/87=12) Density=Current Pop=(MK,readradii) iop(6/33=2) iop(6/42=6)

loop3.apoCaM-CA-Ng.Init295.run74.water4 

   0  1 
   C    -17.13000000    -9.90000000    40.74000000
   C    -18.60000000   -10.30000000    40.80000000
   O    -19.33000000    -9.91000000    41.71000000
   H    -16.53900000   -10.74200000    40.38000000
   H    -17.01000000    -9.05600000    40.06100000
   H    -16.78900000    -9.61700000    41.73600000
   N    -18.95000000   -11.23000000    39.91000000
   C    -20.29000000   -11.76000000    39.72000000
   C    -20.75000000   -12.59000000    40.91000000
   O    -20.07000000   -13.39000000    41.55000000
   C    -20.10000000   -12.54000000    38.42000000
   C    -21.33000000   -13.24000000    37.85000000
   O    -22.11000000   -13.82000000    38.64000000
   O    -21.66000000   -13.27000000    36.65000000
   H    -18.19000000   -11.56000000    39.34000000
   H    -20.99000000   -10.94000000    39.63000000
   H    -19.32000000   -13.28000000    38.59000000
   H    -19.73000000   -11.90000000    37.62000000
   N    -22.02000000   -12.43000000    41.28000000
   C    -22.63000000   -13.01000000    42.46000000
   C    -22.69000000   -14.53000000    42.51000000
   O    -22.74000000   -15.12000000    43.59000000
   C    -23.93000000   -12.24000000    42.72000000
   C    -25.14000000   -12.75000000    41.95000000
   C    -26.48000000   -12.15000000    42.37000000
   C    -27.61000000   -12.53000000    41.41000000
   N    -28.87000000   -12.10000000    42.04000000
   H    -22.64000000   -11.97000000    40.62000000
   H    -22.05000000   -12.81000000    43.36000000
   H    -23.75000000   -11.19000000    42.50000000
   H    -24.25000000   -12.32000000    43.76000000
   H    -25.19000000   -13.83000000    42.08000000
   H    -24.95000000   -12.57000000    40.89000000
   H    -26.32000000   -11.07000000    42.31000000
   H    -26.78000000   -12.48000000    43.37000000
   H    -27.57000000   -13.59000000    41.17000000
   H    -27.47000000   -12.02000000    40.46000000
   H    -28.90000000   -11.10000000    41.94000000
   H    -29.67000000   -12.53000000    41.60000000
   H    -28.84000000   -12.32000000    43.02000000
   N    -22.71000000   -15.16000000    41.33000000
   C    -22.85000000   -16.58000000    41.12000000
   C    -21.70000000   -17.17000000    40.31000000
   O    -21.22000000   -18.26000000    40.61000000
   C    -24.19000000   -16.91000000    40.46000000
   C    -24.48000000   -16.15000000    39.18000000
   O    -23.92000000   -16.38000000    38.08000000
   O    -25.31000000   -15.22000000    39.24000000
   H    -22.59000000   -14.64000000    40.48000000
   H    -22.78000000   -17.13000000    42.06000000
   H    -24.97000000   -16.77000000    41.21000000
   H    -24.21000000   -17.96000000    40.16000000
   N    -21.29000000   -16.40000000    39.30000000
   C    -20.22000000   -16.74000000    38.39000000
   C    -20.60000000   -17.27000000    37.01000000
   O    -19.69000000   -17.59000000    36.26000000
   H    -21.58000000   -15.43000000    39.29000000
   H    -19.66000000   -17.58000000    38.79000000
   H    -19.57000000   -15.87000000    38.30000000
   N    -21.88000000   -17.39000000    36.64000000
   C    -22.52000000   -17.67000000    35.37000000
   C    -22.83000000   -16.43000000    34.54000000
   O    -23.00000000   -15.34000000    35.07000000
   C    -23.71000000   -18.59000000    35.61000000
   C    -23.44000000   -19.74000000    36.57000000
   N    -24.48000000   -20.16000000    37.29000000
   O    -22.31000000   -20.22000000    36.63000000
   H    -22.58000000   -17.05000000    37.29000000
   H    -21.82000000   -18.30000000    34.82000000
   H    -23.87000000   -19.05000000    34.64000000
   H    -24.49000000   -17.93000000    36.00000000
   H    -25.40000000   -19.90000000    36.98000000
   H    -24.19000000   -20.68000000    38.11000000
   N    -22.89000000   -16.66000000    33.22000000
   C    -22.96000000   -15.61000000    32.23000000
   C    -24.39000000   -15.18000000    31.90000000
   O    -24.57000000   -14.13000000    31.29000000
   H    -22.69000000   -17.61000000    32.94000000
   H    -22.48000000   -15.97000000    31.33000000
   H    -22.51000000   -14.71000000    32.66000000
   N    -25.43000000   -15.91000000    32.29000000
   C    -26.81000000   -15.45000000    32.24000000
   C    -26.98000000   -14.19000000    33.07000000
   O    -26.69000000   -14.16000000    34.26000000
   C    -27.74000000   -16.59000000    32.62000000
   C    -29.20000000   -16.22000000    32.52000000
   C    -29.71000000   -15.52000000    33.63000000
   C    -29.98000000   -16.30000000    31.37000000
   C    -31.03000000   -15.06000000    33.57000000
   C    -31.32000000   -15.90000000    31.33000000
   C    -31.88000000   -15.29000000    32.47000000
   O    -33.18000000   -14.87000000    32.43000000
   H    -25.33000000   -16.89000000    32.53000000
   H    -27.09000000   -15.26000000    31.20000000
   H    -27.50000000   -16.90000000    33.64000000
   H    -27.55000000   -17.40000000    31.91000000
   H    -29.06000000   -15.37000000    34.48000000
   H    -29.51000000   -16.65000000    30.46000000
   H    -31.54000000   -14.60000000    34.40000000
   H    -31.91000000   -16.14000000    30.45000000
   H    -33.41000000   -14.96000000    31.50000000
   N    -27.72000000   -13.23000000    32.49000000
   C    -28.17000000   -11.95000000    32.99000000
   C    -29.16000000   -12.10000000    34.14000000
   O    -28.84000000   -12.64000000    35.20000000
   C    -26.96000000   -11.14000000    33.44000000
   C    -27.33000000    -9.88000000    34.22000000
   C    -25.90000000   -10.84000000    32.39000000
   C    -28.04000000    -8.87000000    33.32000000
   H    -27.98000000   -13.49000000    31.55000000
   H    -28.69000000   -11.41000000    32.20000000
   H    -26.47000000   -11.76000000    34.20000000
   H    -26.44000000    -9.34000000    34.53000000
   H    -27.97000000   -10.14000000    35.06000000
   H    -25.13000000   -10.12000000    32.69000000
   H    -25.42000000   -11.77000000    32.08000000
   H    -26.41000000   -10.35000000    31.56000000
   H    -28.97000000    -9.29000000    32.95000000
   H    -28.41000000    -7.98000000    33.84000000
   H    -27.51000000    -8.65000000    32.40000000
   N    -30.38000000   -11.58000000    33.96000000
   C    -31.37000000   -11.38000000    34.99000000
   C    -32.79000000   -11.01000000    34.57000000
   O    -33.70000000   -11.02000000    35.39000000
   C    -30.96000000   -10.11000000    35.74000000
   O    -30.69000000    -9.03000000    34.88000000
   H    -30.57000000   -11.11000000    33.09000000
   H    -31.39000000   -12.27000000    35.61000000
   H    -30.05000000   -10.41000000    36.26000000
   H    -31.83000000    -9.83000000    36.34000000
   H    -30.22000000    -8.42000000    35.46000000
   N    -33.06000000   -10.65000000    33.31000000
   C    -34.38000000   -10.35000000    32.79000000
   C    -35.24000000    -9.37000000    33.57000000
   O    -36.42000000    -9.64000000    33.78000000
   C    -35.02000000   -11.68000000    32.40000000
   H    -32.27000000   -10.43000000    32.73000000
   H    -34.33000000    -9.83000000    31.83000000
   H    -35.43000000   -12.31000000    33.19000000
   H    -35.90000000   -11.37000000    31.82000000
   H    -34.43000000   -12.19000000    31.64000000
   N    -34.76000000    -8.20000000    33.99000000
   C    -33.54000000    -7.43000000    33.93000000
   C    -33.82000000    -6.18000000    33.10000000
   O    -34.98000000    -5.84000000    32.90000000
   C    -33.19000000    -7.13000000    35.39000000
   H    -35.52000000    -7.78000000    34.51000000
   H    -32.74000000    -7.99000000    33.44000000
   H    -32.29000000    -6.52000000    35.42000000
   H    -34.07000000    -6.70000000    35.85000000
   H    -32.90000000    -8.01000000    35.96000000
   N    -32.81000000    -5.40000000    32.73000000
   C    -31.37000000    -5.48000000    32.88000000
   C    -30.51000000    -5.25000000    31.64000000
   O    -29.55000000    -6.00000000    31.49000000
   C    -30.92000000    -4.52000000    33.98000000
   C    -29.47000000    -4.67000000    34.42000000
   C    -29.03000000    -4.02000000    35.72000000
   O    -29.19000000    -4.58000000    36.83000000
   O    -28.54000000    -2.87000000    35.70000000
   H    -33.05000000    -4.68000000    32.06000000
   H    -31.19000000    -6.47000000    33.29000000
   H    -31.61000000    -4.53000000    34.82000000
   H    -31.13000000    -3.47000000    33.78000000
   H    -28.93000000    -4.25000000    33.57000000
   H    -29.35000000    -5.75000000    34.48000000
   N    -30.85000000    -4.34000000    30.73000000
   C    -30.03000000    -4.17000000    29.55000000
   H    -29.05000000    -4.61500000    29.72200000
   H    -30.50700000    -4.66100000    28.70200000
   H    -29.91400000    -3.10700000    29.33800000
   H    -31.66000000    -3.75000000    30.88000000
  Ca    -24.29300000   -14.09300000    36.97000000
   O    -24.50300000   -11.60300000    38.27000000
   H    -25.02300000   -10.79300000    38.31000000
   H    -23.91300000   -11.54300000    39.02000000
   O    -26.36300000   -15.92300000    36.51000000
   H    -27.22300000   -15.52300000    36.66000000
   H    -26.55300000   -16.85300000    36.38000000
   O    -26.58300000   -12.76300000    36.67000000
   H    -27.23300000   -12.15300000    37.03000000
   H    -26.95300000   -13.02300000    35.82000000
   O    -24.12300000   -12.62300000    34.74000000
   H    -24.72300000   -13.08300000    34.15000000
   H    -23.61300000   -12.05300000    34.16000000

Ca 1.00



