%chk=loop1.apoCaM-CA-Ng.Init31.run86.water4.chk
%nprocshared=20
%mem=10GB
%nosave
#b3lyp/svp scf=(tight,noincore,xqc) Test 
#IOP(5/87=12) Density=Current Pop=(MK,readradii) iop(6/33=2) iop(6/42=6)

loop1.apoCaM-CA-Ng.Init31.run86.water4 

   0  1 
   C     58.99000000    40.46000000    26.56000000
   C     58.66000000    40.79000000    25.11000000
   O     57.54000000    41.18000000    24.80000000
   H     59.80500000    41.09900000    26.90100000
   H     58.11100000    40.63100000    27.18100000
   H     59.29200000    39.41500000    26.63600000
   N     59.62000000    40.57000000    24.20000000
   C     59.41000000    40.38000000    22.77000000
   C     58.61000000    39.15000000    22.38000000
   O     58.31000000    38.26000000    23.17000000
   C     60.75000000    40.47000000    22.05000000
   C     60.60000000    40.87000000    20.58000000
   O     59.49000000    41.20000000    20.12000000
   O     61.54000000    40.96000000    19.76000000
   H     60.55000000    40.38000000    24.53000000
   H     58.90000000    41.29000000    22.47000000
   H     61.20000000    39.49000000    22.18000000
   H     61.34000000    41.25000000    22.54000000
   N     58.19000000    39.09000000    21.11000000
   C     57.48000000    37.92000000    20.61000000
   C     58.23000000    36.60000000    20.69000000
   O     57.59000000    35.68000000    21.20000000
   C     57.07000000    38.16000000    19.16000000
   C     55.91000000    39.14000000    18.98000000
   C     54.94000000    38.66000000    17.91000000
   C     53.84000000    39.70000000    17.66000000
   N     52.99000000    39.96000000    18.83000000
   H     58.33000000    39.86000000    20.48000000
   H     56.52000000    37.82000000    21.10000000
   H     56.70000000    37.23000000    18.72000000
   H     57.88000000    38.58000000    18.56000000
   H     56.37000000    40.08000000    18.67000000
   H     55.29000000    39.27000000    19.87000000
   H     54.47000000    37.71000000    18.17000000
   H     55.36000000    38.48000000    16.92000000
   H     53.18000000    39.24000000    16.93000000
   H     54.28000000    40.61000000    17.27000000
   H     52.28000000    40.65000000    18.66000000
   H     52.47000000    39.12000000    19.04000000
   H     53.63000000    40.24000000    19.56000000
   N     59.49000000    36.46000000    20.29000000
   C     60.26000000    37.31000000    19.41000000
   C     61.76000000    37.22000000    19.67000000
   O     62.33000000    36.15000000    19.84000000
   C     60.04000000    37.01000000    17.93000000
   C     60.61000000    38.07000000    17.01000000
   O     61.33000000    37.69000000    16.06000000
   O     60.32000000    39.28000000    17.19000000
   H     60.04000000    35.72000000    20.70000000
   H     59.98000000    38.35000000    19.57000000
   H     59.01000000    36.77000000    17.68000000
   H     60.58000000    36.08000000    17.72000000
   N     62.50000000    38.33000000    19.63000000
   C     63.93000000    38.39000000    19.90000000
   C     64.46000000    39.81000000    20.02000000
   O     64.66000000    40.37000000    21.10000000
   H     62.10000000    39.16000000    19.22000000
   H     64.45000000    37.88000000    19.08000000
   H     64.22000000    37.93000000    20.84000000
   N     64.62000000    40.44000000    18.86000000
   C     65.21000000    41.74000000    18.62000000
   C     66.73000000    41.69000000    18.52000000
   O     67.27000000    40.62000000    18.25000000
   C     64.77000000    42.45000000    17.34000000
   C     63.26000000    42.38000000    17.20000000
   O     62.53000000    43.26000000    17.71000000
   O     62.76000000    41.36000000    16.68000000
   H     64.32000000    39.88000000    18.07000000
   H     64.96000000    42.45000000    19.41000000
   H     65.16000000    41.88000000    16.50000000
   H     65.07000000    43.50000000    17.36000000
   N     67.44000000    42.78000000    18.82000000
   C     67.01000000    44.16000000    18.90000000
   C     67.21000000    44.99000000    17.64000000
   O     66.58000000    46.03000000    17.48000000
   H     68.41000000    42.58000000    18.63000000
   H     67.74000000    44.57000000    19.61000000
   H     66.02000000    44.24000000    19.35000000
   N     67.93000000    44.38000000    16.70000000
   C     68.36000000    44.97000000    15.45000000
   C     69.32000000    46.13000000    15.69000000
   O     69.08000000    47.23000000    15.19000000
   C     67.20000000    45.35000000    14.54000000
   C     66.16000000    44.24000000    14.39000000
   O     67.59000000    45.62000000    13.22000000
   H     68.32000000    43.46000000    16.90000000
   H     68.97000000    44.17000000    15.03000000
   H     66.57000000    46.13000000    14.96000000
   H     67.78000000    46.56000000    13.14000000
   H     65.24000000    44.58000000    13.92000000
   H     66.56000000    43.44000000    13.76000000
   H     65.92000000    43.73000000    15.32000000
   N     70.31000000    45.88000000    16.54000000
   C     71.37000000    46.77000000    16.98000000
   C     72.27000000    47.18000000    15.81000000
   O     73.45000000    46.85000000    15.85000000
   C     70.85000000    47.98000000    17.76000000
   C     69.70000000    47.55000000    18.66000000
   C     71.93000000    48.66000000    18.59000000
   C     70.10000000    46.65000000    19.82000000
   H     70.52000000    44.94000000    16.85000000
   H     72.06000000    46.25000000    17.64000000
   H     70.56000000    48.82000000    17.12000000
   H     68.97000000    46.99000000    18.07000000
   H     69.31000000    48.49000000    19.06000000
   H     71.42000000    49.47000000    19.11000000
   H     72.44000000    48.09000000    19.37000000
   H     72.75000000    49.04000000    17.97000000
   H     69.16000000    46.34000000    20.27000000
   H     70.60000000    45.76000000    19.45000000
   H     70.69000000    47.21000000    20.56000000
   N     71.70000000    47.70000000    14.73000000
   C     72.37000000    48.06000000    13.49000000
   C     72.27000000    49.54000000    13.18000000
   O     71.27000000    50.11000000    13.61000000
   C     72.09000000    47.08000000    12.35000000
   C     70.62000000    47.29000000    12.03000000
   O     72.29000000    45.71000000    12.60000000
   H     70.71000000    47.92000000    14.77000000
   H     73.43000000    47.86000000    13.68000000
   H     72.76000000    47.28000000    11.52000000
   H     73.19000000    45.49000000    12.36000000
   H     70.05000000    46.98000000    12.90000000
   H     70.40000000    48.34000000    11.87000000
   H     70.30000000    46.77000000    11.12000000
   N     73.11000000    50.09000000    12.30000000
   C     72.89000000    51.43000000    11.79000000
   C     71.64000000    51.56000000    10.92000000
   O     71.35000000    50.65000000    10.15000000
   C     74.09000000    52.03000000    11.06000000
   C     75.37000000    51.97000000    11.89000000
   O     74.44000000    51.33000000     9.90000000
   H     73.84000000    49.51000000    11.91000000
   H     72.69000000    51.99000000    12.70000000
   H     73.84000000    53.07000000    10.82000000
   H     74.81000000    50.47000000    10.13000000
   H     75.53000000    50.92000000    12.09000000
   H     76.11000000    52.43000000    11.23000000
   H     75.38000000    52.60000000    12.78000000
   N     70.88000000    52.64000000    11.11000000
   C     69.74000000    53.04000000    10.32000000
   C     68.71000000    51.93000000    10.13000000
   O     68.14000000    51.78000000     9.05000000
   C     70.29000000    53.59000000     9.00000000
   C     71.18000000    54.82000000     9.14000000
   C     70.46000000    56.03000000     9.74000000
   C     71.38000000    57.19000000     9.38000000
   N     71.07000000    58.37000000    10.20000000
   H     71.09000000    53.25000000    11.89000000
   H     69.22000000    53.85000000    10.83000000
   H     69.43000000    53.85000000     8.39000000
   H     70.91000000    52.82000000     8.53000000
   H     71.52000000    55.00000000     8.12000000
   H     72.05000000    54.60000000     9.76000000
   H     70.32000000    55.98000000    10.82000000
   H     69.48000000    56.09000000     9.28000000
   H     71.22000000    57.44000000     8.33000000
   H     72.43000000    56.96000000     9.59000000
   H     71.28000000    58.22000000    11.18000000
   H     71.59000000    59.19000000     9.96000000
   H     70.09000000    58.63000000    10.21000000
   N     68.42000000    51.31000000    11.27000000
   C     67.46000000    50.24000000    11.38000000
   C     67.61000000    49.43000000    12.66000000
   O     67.61000000    48.22000000    12.48000000
   C     66.02000000    50.71000000    11.20000000
   C     65.12000000    49.62000000    10.64000000
   C     63.68000000    50.11000000    10.49000000
   O     63.08000000    50.13000000     9.39000000
   O     63.01000000    50.49000000    11.47000000
   H     68.97000000    51.55000000    12.08000000
   H     67.56000000    49.49000000    10.59000000
   H     66.01000000    51.50000000    10.45000000
   H     65.69000000    51.10000000    12.17000000
   H     65.00000000    48.82000000    11.38000000
   H     65.63000000    49.25000000     9.75000000
   N     67.78000000    49.92000000    13.89000000
   C     67.80000000    51.29000000    14.36000000
   H     67.96700000    51.96000000    13.51700000
   H     66.84500000    51.52800000    14.82900000
   H     68.60300000    51.41400000    15.08700000
   H     67.77000000    49.21000000    14.61000000
  Ca     60.32000000    41.91000000    17.65000000
   O     60.48000000    40.84000000    15.06000000
   H     60.25000000    39.98000000    15.41000000
   H     60.76000000    40.66000000    14.16000000
   O     59.49000000    44.04000000    16.07000000
   H     59.83000000    44.40000000    15.25000000
   H     59.50000000    44.78000000    16.68000000
   O     57.91000000    41.62000000    16.50000000
   H     57.42000000    41.30000000    15.74000000
   H     57.52000000    42.47000000    16.70000000
   O     59.49000000    44.06000000    19.05000000
   H     59.90000000    44.31000000    19.88000000
   H     58.70000000    44.60000000    19.00000000

Ca 1.00



