%chk=loop3.holoCaM-CaMKII.run20.water2.chk
%nprocshared=20
%mem=10GB
%nosave
#b3lyp/svp scf=(tight,noincore,xqc) Test 
#IOP(5/87=12) Density=Current Pop=(MK,readradii) iop(6/33=2) iop(6/42=6)

loop3.holoCaM-CaMKII.run20.water2 

   0  1 
   C     88.12000000    65.20000000    32.16000000
   C     87.76000000    65.09000000    33.63000000
   O     88.47000000    64.34000000    34.29000000
   H     89.15700000    64.89700000    32.01700000
   H     87.46800000    64.55000000    31.57600000
   H     87.99500000    66.23100000    31.83100000
   N     86.87000000    65.88000000    34.23000000
   C     86.62000000    65.81000000    35.66000000
   C     85.93000000    64.49000000    35.98000000
   O     84.82000000    64.17000000    35.58000000
   C     85.85000000    67.02000000    36.18000000
   C     85.51000000    66.94000000    37.66000000
   O     85.95000000    66.03000000    38.39000000
   O     84.76000000    67.86000000    38.06000000
   H     86.29000000    66.47000000    33.65000000
   H     87.58000000    65.82000000    36.17000000
   H     84.87000000    67.05000000    35.70000000
   H     86.29000000    67.97000000    35.87000000
   N     86.70000000    63.60000000    36.62000000
   C     86.36000000    62.21000000    36.88000000
   C     85.13000000    62.10000000    37.77000000
   O     84.41000000    61.12000000    37.60000000
   C     87.62000000    61.60000000    37.48000000
   C     87.30000000    60.13000000    37.71000000
   C     88.62000000    59.48000000    38.13000000
   C     88.45000000    57.99000000    38.39000000
   N     89.69000000    57.43000000    38.93000000
   H     87.49000000    63.96000000    37.13000000
   H     86.09000000    61.73000000    35.94000000
   H     87.73000000    62.11000000    38.44000000
   H     88.60000000    61.65000000    36.99000000
   H     86.97000000    59.63000000    36.80000000
   H     86.55000000    60.10000000    38.49000000
   H     88.92000000    59.99000000    39.04000000
   H     89.40000000    59.66000000    37.39000000
   H     88.11000000    57.57000000    37.45000000
   H     87.67000000    57.81000000    39.13000000
   H     89.86000000    56.44000000    38.82000000
   H     90.53000000    57.81000000    38.50000000
   H     89.77000000    57.48000000    39.94000000
   N     84.94000000    62.92000000    38.81000000
   C     84.01000000    62.73000000    39.91000000
   C     82.96000000    63.84000000    39.90000000
   O     81.98000000    63.73000000    40.64000000
   C     84.67000000    62.74000000    41.28000000
   C     85.69000000    63.87000000    41.35000000
   O     85.38000000    65.02000000    41.72000000
   O     86.88000000    63.67000000    41.01000000
   H     85.63000000    63.64000000    38.92000000
   H     83.55000000    61.75000000    39.81000000
   H     85.31000000    61.88000000    41.48000000
   H     83.94000000    62.87000000    42.08000000
   N     83.05000000    64.78000000    38.96000000
   C     81.99000000    65.71000000    38.63000000
   C     81.84000000    66.78000000    39.70000000
   O     80.69000000    67.12000000    39.98000000
   H     83.86000000    64.78000000    38.35000000
   H     81.12000000    65.07000000    38.51000000
   H     82.33000000    66.12000000    37.68000000
   N     82.89000000    67.27000000    40.37000000
   C     82.70000000    68.32000000    41.36000000
   C     82.87000000    69.74000000    40.86000000
   O     82.41000000    70.67000000    41.52000000
   C     83.62000000    68.04000000    42.53000000
   C     85.12000000    68.25000000    42.37000000
   N     85.76000000    68.91000000    43.34000000
   O     85.68000000    67.97000000    41.31000000
   H     83.80000000    66.95000000    40.10000000
   H     81.70000000    68.32000000    41.80000000
   H     83.41000000    66.99000000    42.77000000
   H     83.22000000    68.59000000    43.38000000
   H     85.29000000    69.10000000    44.22000000
   H     86.74000000    69.14000000    43.26000000
   N     83.53000000    69.91000000    39.71000000
   C     83.89000000    71.16000000    39.07000000
   C     85.36000000    71.53000000    39.05000000
   O     85.74000000    72.62000000    38.62000000
   H     83.85000000    69.12000000    39.17000000
   H     83.39000000    71.94000000    39.65000000
   H     83.51000000    71.28000000    38.06000000
   N     86.21000000    70.56000000    39.42000000
   C     87.65000000    70.71000000    39.38000000
   C     88.34000000    69.43000000    38.94000000
   O     87.74000000    68.36000000    38.88000000
   C     88.10000000    71.02000000    40.81000000
   C     87.53000000    72.27000000    41.44000000
   C     88.23000000    73.48000000    41.38000000
   C     86.27000000    72.24000000    42.05000000
   C     87.74000000    74.65000000    41.97000000
   C     85.73000000    73.41000000    42.60000000
   C     86.44000000    74.62000000    42.51000000
   O     85.85000000    75.80000000    42.83000000
   H     85.82000000    69.68000000    39.71000000
   H     87.96000000    71.53000000    38.75000000
   H     89.19000000    71.08000000    40.80000000
   H     87.78000000    70.18000000    41.43000000
   H     89.22000000    73.55000000    40.94000000
   H     85.70000000    71.33000000    42.13000000
   H     88.44000000    75.48000000    41.94000000
   H     84.76000000    73.22000000    43.05000000
   H     84.96000000    75.62000000    43.15000000
   N     89.61000000    69.48000000    38.52000000
   C     90.39000000    68.40000000    37.96000000
   C     91.78000000    68.42000000    38.57000000
   O     92.45000000    69.45000000    38.56000000
   C     90.52000000    68.61000000    36.46000000
   C     89.19000000    68.57000000    35.72000000
   C     91.45000000    67.60000000    35.78000000
   C     89.24000000    69.40000000    34.44000000
   H     89.96000000    70.42000000    38.40000000
   H     89.92000000    67.45000000    38.20000000
   H     90.98000000    69.59000000    36.35000000
   H     88.31000000    68.87000000    36.28000000
   H     88.90000000    67.56000000    35.44000000
   H     91.93000000    68.13000000    34.96000000
   H     92.35000000    67.23000000    36.26000000
   H     90.96000000    66.76000000    35.30000000
   H     90.01000000    68.97000000    33.80000000
   H     88.31000000    69.40000000    33.86000000
   H     89.47000000    70.43000000    34.71000000
   N     92.21000000    67.20000000    38.95000000
   C     93.57000000    66.94000000    39.37000000
   C     94.45000000    66.12000000    38.44000000
   O     93.99000000    65.55000000    37.45000000
   C     93.56000000    66.29000000    40.75000000
   O     92.65000000    65.22000000    40.76000000
   H     91.59000000    66.41000000    39.01000000
   H     94.15000000    67.84000000    39.57000000
   H     93.30000000    67.09000000    41.45000000
   H     94.52000000    65.90000000    41.10000000
   H     91.75000000    65.51000000    40.58000000
   N     95.72000000    65.97000000    38.81000000
   C     96.76000000    65.18000000    38.17000000
   C     96.35000000    63.74000000    37.90000000
   O     96.42000000    63.32000000    36.75000000
   C     98.03000000    65.14000000    39.01000000
   H     96.07000000    66.40000000    39.66000000
   H     96.94000000    65.62000000    37.19000000
   H     97.96000000    64.45000000    39.85000000
   H     98.82000000    64.85000000    38.32000000
   H     98.25000000    66.17000000    39.29000000
   N     95.94000000    62.90000000    38.86000000
   C     95.46000000    61.56000000    38.60000000
   C     94.24000000    61.56000000    37.68000000
   O     94.20000000    60.60000000    36.91000000
   C     95.26000000    60.84000000    39.93000000
   H     96.05000000    63.22000000    39.81000000
   H     96.28000000    61.06000000    38.09000000
   H     94.46000000    61.32000000    40.49000000
   H     94.96000000    59.79000000    39.85000000
   H     96.20000000    60.79000000    40.48000000
   N     93.41000000    62.60000000    37.58000000
   C     92.20000000    62.54000000    36.78000000
   C     92.51000000    62.75000000    35.31000000
   O     91.99000000    62.06000000    34.44000000
   C     91.16000000    63.57000000    37.21000000
   C     90.57000000    63.19000000    38.57000000
   C     89.72000000    64.37000000    39.03000000
   O     88.54000000    64.58000000    38.67000000
   O     90.18000000    65.22000000    39.82000000
   H     93.52000000    63.45000000    38.11000000
   H     91.75000000    61.56000000    36.89000000
   H     90.39000000    63.68000000    36.44000000
   H     91.63000000    64.56000000    37.24000000
   H     91.36000000    63.11000000    39.32000000
   H     90.07000000    62.23000000    38.53000000
   N     93.38000000    63.75000000    35.09000000
   C     93.87000000    64.09000000    33.77000000
   H     94.89500000    63.73400000    33.66100000
   H     93.24000000    63.61900000    33.01500000
   H     93.84600000    65.17200000    33.64000000
   H     93.77000000    64.25000000    35.88000000
  Ca     87.42000000    66.17000000    40.44000000
   O     89.15000000    67.91000000    41.65000000
   H     89.02000000    67.62000000    42.55000000
   H     90.04000000    68.25000000    41.63000000
   O     87.91000000    65.84000000    42.99000000
   H     87.69000000    65.01000000    43.42000000
   H     88.63000000    66.19000000    43.51000000

Ca 1.00



