%chk=loop3.holoCaM.run93.water2.chk
%nprocshared=20
%mem=10GB
%nosave
#b3lyp/svp scf=(tight,noincore,xqc) Test 
#IOP(5/87=12) Density=Current Pop=(MK,readradii) iop(6/33=2) iop(6/42=6)

loop3.holoCaM.run93.water2 

   0  1 
   C     47.94000000    50.28000000    20.82000000
   C     49.27000000    50.75000000    21.38000000
   O     50.23000000    50.00000000    21.30000000
   H     47.21600000    51.09300000    20.87500000
   H     48.06900000    49.97900000    19.78000000
   H     47.57900000    49.43200000    21.40200000
   N     49.29000000    51.88000000    22.10000000
   C     50.39000000    52.29000000    22.95000000
   C     50.60000000    51.32000000    24.10000000
   O     49.71000000    51.15000000    24.93000000
   C     50.27000000    53.77000000    23.31000000
   C     51.39000000    54.28000000    24.20000000
   O     52.35000000    53.52000000    24.46000000
   O     51.40000000    55.47000000    24.57000000
   H     48.54000000    52.55000000    22.03000000
   H     51.31000000    52.12000000    22.39000000
   H     49.32000000    53.97000000    23.79000000
   H     50.29000000    54.31000000    22.36000000
   N     51.71000000    50.57000000    24.12000000
   C     51.88000000    49.50000000    25.09000000
   C     52.35000000    50.03000000    26.44000000
   O     52.32000000    49.27000000    27.41000000
   C     52.89000000    48.50000000    24.53000000
   C     52.46000000    47.53000000    23.43000000
   C     51.33000000    46.61000000    23.90000000
   C     50.01000000    47.29000000    23.53000000
   N     48.99000000    46.98000000    24.55000000
   H     52.35000000    50.77000000    23.38000000
   H     50.94000000    48.96000000    25.17000000
   H     53.12000000    47.83000000    25.36000000
   H     53.84000000    48.94000000    24.25000000
   H     53.37000000    46.97000000    23.19000000
   H     52.08000000    48.17000000    22.63000000
   H     51.41000000    46.39000000    24.96000000
   H     51.30000000    45.64000000    23.40000000
   H     49.74000000    46.90000000    22.55000000
   H     50.05000000    48.38000000    23.54000000
   H     48.91000000    45.98000000    24.68000000
   H     49.23000000    47.38000000    25.44000000
   H     48.06000000    47.28000000    24.29000000
   N     52.53000000    51.34000000    26.57000000
   C     53.14000000    51.85000000    27.78000000
   C     52.76000000    53.26000000    28.22000000
   O     52.81000000    53.52000000    29.42000000
   C     54.66000000    51.82000000    27.59000000
   C     55.07000000    52.39000000    26.24000000
   O     55.14000000    53.63000000    26.09000000
   O     55.37000000    51.64000000    25.28000000
   H     52.59000000    51.96000000    25.78000000
   H     52.80000000    51.33000000    28.68000000
   H     55.01000000    50.79000000    27.66000000
   H     55.16000000    52.41000000    28.36000000
   N     52.19000000    54.09000000    27.34000000
   C     51.61000000    55.38000000    27.61000000
   C     52.48000000    56.57000000    27.22000000
   O     52.05000000    57.69000000    27.49000000
   H     52.16000000    53.74000000    26.39000000
   H     51.35000000    55.43000000    28.67000000
   H     50.73000000    55.62000000    27.01000000
   N     53.70000000    56.45000000    26.70000000
   C     54.48000000    57.61000000    26.31000000
   C     53.91000000    58.43000000    25.17000000
   O     54.53000000    59.43000000    24.81000000
   C     55.92000000    57.16000000    26.11000000
   C     56.19000000    56.51000000    24.76000000
   N     57.43000000    56.63000000    24.29000000
   O     55.29000000    55.97000000    24.13000000
   H     54.02000000    55.50000000    26.54000000
   H     54.60000000    58.19000000    27.23000000
   H     56.23000000    56.40000000    26.83000000
   H     56.59000000    58.00000000    26.27000000
   H     58.11000000    57.16000000    24.82000000
   H     57.73000000    56.20000000    23.43000000
   N     52.80000000    58.06000000    24.52000000
   C     52.18000000    58.74000000    23.41000000
   C     52.88000000    58.56000000    22.07000000
   O     52.61000000    59.32000000    21.14000000
   H     52.33000000    57.20000000    24.78000000
   H     52.06000000    59.81000000    23.61000000
   H     51.18000000    58.34000000    23.22000000
   N     53.77000000    57.57000000    22.01000000
   C     54.41000000    57.00000000    20.84000000
   C     54.29000000    55.49000000    20.75000000
   O     53.88000000    54.84000000    21.71000000
   C     55.87000000    57.45000000    20.81000000
   C     56.24000000    58.89000000    21.09000000
   C     56.57000000    59.51000000    22.29000000
   C     56.49000000    59.66000000    19.95000000
   C     57.17000000    60.77000000    22.35000000
   C     56.96000000    60.98000000    19.93000000
   C     57.39000000    61.50000000    21.17000000
   O     57.94000000    62.74000000    21.28000000
   H     53.88000000    57.12000000    22.91000000
   H     54.03000000    57.39000000    19.89000000
   H     56.34000000    57.08000000    19.89000000
   H     56.39000000    56.97000000    21.64000000
   H     56.61000000    58.90000000    23.19000000
   H     56.33000000    59.22000000    18.97000000
   H     57.61000000    61.16000000    23.26000000
   H     57.06000000    61.56000000    19.03000000
   H     58.01000000    63.13000000    20.41000000
   N     54.38000000    54.99000000    19.52000000
   C     54.29000000    53.60000000    19.13000000
   C     55.52000000    53.31000000    18.28000000
   O     55.83000000    54.07000000    17.37000000
   C     52.93000000    53.18000000    18.59000000
   C     51.84000000    53.12000000    19.67000000
   C     52.91000000    51.92000000    17.73000000
   C     50.46000000    53.06000000    19.01000000
   H     54.55000000    55.61000000    18.74000000
   H     54.38000000    52.98000000    20.02000000
   H     52.57000000    53.97000000    17.94000000
   H     52.01000000    54.00000000    20.29000000
   H     51.93000000    52.23000000    20.29000000
   H     53.68000000    52.01000000    16.97000000
   H     53.09000000    51.05000000    18.36000000
   H     52.00000000    51.70000000    17.16000000
   H     50.38000000    52.11000000    18.48000000
   H     49.66000000    53.00000000    19.75000000
   H     50.35000000    53.90000000    18.33000000
   N     56.24000000    52.21000000    18.50000000
   C     57.44000000    51.74000000    17.83000000
   C     57.14000000    50.61000000    16.85000000
   O     56.04000000    50.08000000    16.77000000
   C     58.44000000    51.24000000    18.87000000
   O     57.84000000    50.19000000    19.61000000
   H     55.89000000    51.66000000    19.27000000
   H     57.83000000    52.58000000    17.27000000
   H     58.61000000    52.09000000    19.53000000
   H     59.40000000    50.96000000    18.43000000
   H     58.43000000    49.70000000    20.18000000
   N     58.13000000    50.11000000    16.11000000
   C     57.97000000    48.95000000    15.26000000
   C     57.58000000    47.76000000    16.13000000
   O     56.77000000    46.93000000    15.71000000
   C     59.25000000    48.82000000    14.45000000
   H     59.06000000    50.50000000    16.11000000
   H     57.20000000    49.16000000    14.52000000
   H     59.27000000    49.72000000    13.83000000
   H     60.11000000    48.85000000    15.12000000
   H     59.27000000    47.88000000    13.90000000
   N     58.21000000    47.48000000    17.27000000
   C     57.97000000    46.30000000    18.08000000
   C     56.68000000    46.41000000    18.88000000
   O     56.23000000    45.39000000    19.40000000
   C     59.12000000    46.20000000    19.07000000
   H     59.05000000    47.99000000    17.49000000
   H     57.94000000    45.42000000    17.43000000
   H     59.03000000    45.27000000    19.62000000
   H     60.06000000    46.13000000    18.52000000
   H     59.12000000    47.03000000    19.77000000
   N     56.04000000    47.56000000    19.11000000
   C     54.70000000    47.68000000    19.64000000
   C     53.68000000    47.38000000    18.55000000
   O     52.66000000    46.72000000    18.73000000
   C     54.39000000    49.07000000    20.19000000
   C     55.16000000    49.47000000    21.44000000
   C     54.94000000    50.90000000    21.90000000
   O     55.81000000    51.74000000    21.59000000
   O     53.95000000    51.32000000    22.54000000
   H     56.53000000    48.34000000    18.68000000
   H     54.56000000    46.91000000    20.40000000
   H     53.32000000    49.22000000    20.38000000
   H     54.62000000    49.79000000    19.41000000
   H     56.20000000    49.18000000    21.30000000
   H     54.90000000    48.74000000    22.21000000
   N     53.93000000    47.88000000    17.33000000
   C     53.23000000    47.43000000    16.14000000
   H     52.32800000    48.02600000    16.00200000
   H     53.87800000    47.54600000    15.27100000
   H     52.95700000    46.38100000    16.25300000
   H     54.76000000    48.45000000    17.29000000
  Ca     54.88000000    53.45000000    23.59000000
   O     56.63000000    54.30000000    21.50000000
   H     56.36000000    53.41000000    21.29000000
   H     57.51000000    54.38000000    21.14000000
   O     57.60000000    53.34000000    24.20000000
   H     57.69000000    53.68000000    25.09000000
   H     58.44000000    53.51000000    23.79000000

Ca 1.00



