%chk=loop3.apoCaM-CA-Ng.Init293.run11.water4.chk
%nprocshared=20
%mem=10GB
%nosave
#b3lyp/svp scf=(tight,noincore,xqc) Test 
#IOP(5/87=12) Density=Current Pop=(MK,readradii) iop(6/33=2) iop(6/42=6)

loop3.apoCaM-CA-Ng.Init293.run11.water4 

   0  1 
   C     59.32000000    48.80000000    14.84000000
   C     59.43000000    50.18000000    14.21000000
   O     58.57000000    51.01000000    14.50000000
   H     58.30200000    48.42900000    14.72500000
   H     60.01200000    48.11800000    14.34600000
   H     59.56600000    48.86300000    15.90000000
   N     60.48000000    50.34000000    13.40000000
   C     60.89000000    51.60000000    12.81000000
   C     59.88000000    52.24000000    11.87000000
   O     60.37000000    53.13000000    11.18000000
   C     61.35000000    52.53000000    13.93000000
   C     62.53000000    53.42000000    13.54000000
   O     63.55000000    52.87000000    13.07000000
   O     62.32000000    54.64000000    13.70000000
   H     61.04000000    49.55000000    13.14000000
   H     61.72000000    51.44000000    12.13000000
   H     61.65000000    51.99000000    14.83000000
   H     60.51000000    53.12000000    14.30000000
   N     58.67000000    51.71000000    11.75000000
   C     57.77000000    51.83000000    10.62000000
   C     57.16000000    53.18000000    10.30000000
   O     56.29000000    53.23000000     9.44000000
   C     56.75000000    50.70000000    10.75000000
   C     55.93000000    50.75000000    12.04000000
   C     55.26000000    52.06000000    12.44000000
   C     54.03000000    51.90000000    13.34000000
   N     53.36000000    53.20000000    13.53000000
   H     58.52000000    51.02000000    12.48000000
   H     58.28000000    51.48000000     9.72000000
   H     57.29000000    49.76000000    10.78000000
   H     56.10000000    50.56000000     9.89000000
   H     56.61000000    50.36000000    12.79000000
   H     55.14000000    50.04000000    11.81000000
   H     54.83000000    52.53000000    11.55000000
   H     55.92000000    52.82000000    12.87000000
   H     54.42000000    51.43000000    14.24000000
   H     53.35000000    51.23000000    12.82000000
   H     53.91000000    53.84000000    14.08000000
   H     53.04000000    53.73000000    12.73000000
   H     52.51000000    53.05000000    14.06000000
   N     57.45000000    54.26000000    11.03000000
   C     56.93000000    55.60000000    10.82000000
   C     57.87000000    56.61000000    11.47000000
   O     58.71000000    56.23000000    12.29000000
   C     55.55000000    55.66000000    11.47000000
   C     54.82000000    56.96000000    11.14000000
   O     53.92000000    57.38000000    11.89000000
   O     55.18000000    57.65000000    10.17000000
   H     58.01000000    54.16000000    11.86000000
   H     56.95000000    55.86000000     9.76000000
   H     55.62000000    55.61000000    12.55000000
   H     55.07000000    54.74000000    11.15000000
   N     57.85000000    57.89000000    11.09000000
   C     58.39000000    59.08000000    11.70000000
   C     57.36000000    59.82000000    12.54000000
   O     56.26000000    60.02000000    12.03000000
   H     57.16000000    58.10000000    10.38000000
   H     58.70000000    59.75000000    10.89000000
   H     59.12000000    58.67000000    12.40000000
   N     57.66000000    60.14000000    13.80000000
   C     56.78000000    60.82000000    14.73000000
   C     57.37000000    61.99000000    15.50000000
   O     56.67000000    62.79000000    16.12000000
   C     56.11000000    59.82000000    15.68000000
   C     55.35000000    58.65000000    15.07000000
   N     54.21000000    58.86000000    14.42000000
   O     55.80000000    57.50000000    15.17000000
   H     58.56000000    59.89000000    14.16000000
   H     55.98000000    61.31000000    14.18000000
   H     55.57000000    60.44000000    16.40000000
   H     56.87000000    59.39000000    16.33000000
   H     53.67000000    59.71000000    14.55000000
   H     53.84000000    58.12000000    13.84000000
   N     58.68000000    62.27000000    15.40000000
   C     59.33000000    63.26000000    16.22000000
   C     59.39000000    62.89000000    17.70000000
   O     59.71000000    61.75000000    18.02000000
   H     59.26000000    61.70000000    14.81000000
   H     58.73000000    64.17000000    16.11000000
   H     60.33000000    63.53000000    15.87000000
   N     58.98000000    63.86000000    18.52000000
   C     58.85000000    63.86000000    19.96000000
   C     57.66000000    63.05000000    20.46000000
   O     57.20000000    63.26000000    21.59000000
   C     60.15000000    63.47000000    20.67000000
   C     60.21000000    63.77000000    22.15000000
   C     60.74000000    62.83000000    23.03000000
   C     60.04000000    65.08000000    22.60000000
   C     61.00000000    63.08000000    24.38000000
   C     60.24000000    65.33000000    23.96000000
   C     60.69000000    64.36000000    24.88000000
   O     60.98000000    64.62000000    26.19000000
   H     58.66000000    64.73000000    18.11000000
   H     58.66000000    64.89000000    20.27000000
   H     60.97000000    64.10000000    20.34000000
   H     60.33000000    62.41000000    20.47000000
   H     61.00000000    61.85000000    22.65000000
   H     59.83000000    65.90000000    21.92000000
   H     61.43000000    62.29000000    24.97000000
   H     60.19000000    66.37000000    24.26000000
   H     60.69000000    65.50000000    26.43000000
   N     57.04000000    62.17000000    19.68000000
   C     55.81000000    61.41000000    19.80000000
   C     54.56000000    62.27000000    19.82000000
   O     53.57000000    61.91000000    19.18000000
   C     55.96000000    60.37000000    20.91000000
   C     57.11000000    59.38000000    20.77000000
   C     54.62000000    59.66000000    21.07000000
   C     57.11000000    58.53000000    19.51000000
   H     57.40000000    62.12000000    18.74000000
   H     55.81000000    60.92000000    18.83000000
   H     56.09000000    60.90000000    21.85000000
   H     57.09000000    58.82000000    21.70000000
   H     58.06000000    59.92000000    20.77000000
   H     54.67000000    58.85000000    21.81000000
   H     53.82000000    60.38000000    21.24000000
   H     54.44000000    59.20000000    20.10000000
   H     58.00000000    57.90000000    19.46000000
   H     56.31000000    57.81000000    19.68000000
   H     56.97000000    59.19000000    18.65000000
   N     54.61000000    63.46000000    20.40000000
   C     53.82000000    64.62000000    20.04000000
   C     52.39000000    64.58000000    20.56000000
   O     51.57000000    65.40000000    20.17000000
   C     54.50000000    65.91000000    20.50000000
   O     55.70000000    66.07000000    19.77000000
   H     55.40000000    63.70000000    21.00000000
   H     53.69000000    64.57000000    18.96000000
   H     54.63000000    65.84000000    21.58000000
   H     53.87000000    66.75000000    20.21000000
   H     56.27000000    66.71000000    20.19000000
   N     52.10000000    63.71000000    21.53000000
   C     50.76000000    63.35000000    21.96000000
   C     49.91000000    62.80000000    20.82000000
   O     48.70000000    63.05000000    20.77000000
   C     50.18000000    64.47000000    22.82000000
   H     52.85000000    63.26000000    22.04000000
   H     51.01000000    62.48000000    22.57000000
   H     50.07000000    65.35000000    22.19000000
   H     49.19000000    64.17000000    23.16000000
   H     50.81000000    64.74000000    23.66000000
   N     50.48000000    62.20000000    19.78000000
   C     49.79000000    62.01000000    18.52000000
   C     50.00000000    60.71000000    17.76000000
   O     50.99000000    60.02000000    17.99000000
   C     50.22000000    63.15000000    17.60000000
   H     51.48000000    62.06000000    19.81000000
   H     48.71000000    62.07000000    18.66000000
   H     51.31000000    63.14000000    17.58000000
   H     49.76000000    63.05000000    16.62000000
   H     49.91000000    64.12000000    18.00000000
   N     49.16000000    60.25000000    16.83000000
   C     49.20000000    58.99000000    16.12000000
   C     49.16000000    57.76000000    17.01000000
   O     49.65000000    56.68000000    16.67000000
   C     50.30000000    58.95000000    15.07000000
   C     50.34000000    60.12000000    14.10000000
   C     51.47000000    60.06000000    13.08000000
   O     52.51000000    60.74000000    13.27000000
   O     51.44000000    59.26000000    12.12000000
   H     48.40000000    60.89000000    16.66000000
   H     48.28000000    58.97000000    15.54000000
   H     50.30000000    58.03000000    14.47000000
   H     51.23000000    58.92000000    15.64000000
   H     50.42000000    61.07000000    14.64000000
   H     49.39000000    60.24000000    13.59000000
   N     48.54000000    57.79000000    18.20000000
   C     48.52000000    56.75000000    19.21000000
   H     47.70200000    56.93600000    19.90600000
   H     48.37600000    55.78100000    18.73200000
   H     49.46500000    56.75100000    19.75200000
   H     48.09000000    58.67000000    18.42000000
  Ca     53.85000000    59.86000000    11.28000000
   O     54.40000000    62.44000000    11.78000000
   H     55.04000000    63.07000000    12.11000000
   H     53.84000000    62.96000000    11.19000000
   O     54.86000000    60.42000000     8.93000000
   H     55.59000000    60.16000000     8.37000000
   H     54.12000000    60.51000000     8.33000000
   O     52.49000000    58.40000000     9.38000000
   H     52.64000000    57.46000000     9.29000000
   H     51.70000000    58.56000000     8.86000000
   O     52.11000000    61.34000000     9.94000000
   H     51.17000000    61.29000000    10.16000000
   H     52.16000000    62.04000000     9.28000000

Ca 1.00



