%chk=loop2.apoCaM-CA-Ng.Init293.run57.water6.chk
%nprocshared=20
%mem=10GB
%nosave
#b3lyp/svp scf=(tight,noincore,xqc) Test 
#IOP(5/87=12) Density=Current Pop=(MK,readradii) iop(6/33=2) iop(6/42=6)

loop2.apoCaM-CA-Ng.Init293.run57.water6 

   -2  1 
   C     67.95000000    95.73000000    93.67000000
   C     69.20000000    95.75000000    94.54000000
   O     69.21000000    95.08000000    95.57000000
   H     67.17700000    96.34500000    94.13100000
   H     68.18800000    96.12500000    92.68200000
   H     67.58900000    94.70600000    93.57500000
   N     70.18000000    96.61000000    94.24000000
   C     71.55000000    96.51000000    94.70000000
   C     71.72000000    97.08000000    96.10000000
   O     72.59000000    96.61000000    96.83000000
   C     72.25000000    97.43000000    93.70000000
   C     73.71000000    97.64000000    94.05000000
   O     74.49000000    96.68000000    93.87000000
   O     74.14000000    98.78000000    94.33000000
   H     69.95000000    97.22000000    93.47000000
   H     71.89000000    95.47000000    94.66000000
   H     71.76000000    98.41000000    93.75000000
   H     72.30000000    97.10000000    92.67000000
   N     70.90000000    98.07000000    96.44000000
   C     70.75000000    98.57000000    97.80000000
   C     70.35000000    97.50000000    98.79000000
   O     70.64000000    97.56000000    99.98000000
   C     71.93000000    99.41000000    98.28000000
   H     70.36000000    98.46000000    95.68000000
   H     69.93000000    99.29000000    97.72000000
   H     71.66000000    99.91000000    99.22000000
   H     72.73000000    98.70000000    98.47000000
   H     72.21000000   100.19000000    97.57000000
   N     69.62000000    96.46000000    98.39000000
   C     68.97000000    95.45000000    99.20000000
   C     69.83000000    94.62000000   100.15000000
   O     69.25000000    93.96000000   101.02000000
   C     67.73000000    96.07000000    99.83000000
   C     66.96000000    97.07000000    98.99000000
   O     66.49000000    98.13000000    99.46000000
   O     66.74000000    96.81000000    97.79000000
   H     69.44000000    96.50000000    97.39000000
   H     68.66000000    94.72000000    98.45000000
   H     68.06000000    96.61000000   100.72000000
   H     67.12000000    95.21000000   100.11000000
   N     71.15000000    94.74000000   100.09000000
   C     72.06000000    94.03000000   100.97000000
   C     72.15000000    92.53000000   100.79000000
   O     71.46000000    91.87000000   100.02000000
   H     71.52000000    95.41000000    99.43000000
   H     71.71000000    94.18000000   101.99000000
   H     73.09000000    94.41000000   100.96000000
   N     72.98000000    91.93000000   101.66000000
   C     73.16000000    90.52000000   101.93000000
   C     73.26000000    89.76000000   100.61000000
   O     72.82000000    88.62000000   100.45000000
   C     72.22000000    89.99000000   103.00000000
   C     72.41000000    90.65000000   104.36000000
   N     73.00000000    89.91000000   105.30000000
   O     72.07000000    91.81000000   104.60000000
   H     73.65000000    92.59000000   102.04000000
   H     74.16000000    90.44000000   102.35000000
   H     72.45000000    88.92000000   103.02000000
   H     71.24000000    90.12000000   102.54000000
   H     73.55000000    89.10000000   105.05000000
   H     73.26000000    90.35000000   106.17000000
   N     73.94000000    90.34000000    99.62000000
   C     74.32000000    89.65000000    98.40000000
   C     73.26000000    89.69000000    97.31000000
   O     73.44000000    89.03000000    96.28000000
   H     74.16000000    91.32000000    99.70000000
   H     74.49000000    88.60000000    98.66000000
   H     75.27000000    89.93000000    97.94000000
   N     72.21000000    90.49000000    97.50000000
   C     71.11000000    90.64000000    96.57000000
   C     69.93000000    89.71000000    96.81000000
   O     69.68000000    89.12000000    97.86000000
   C     70.66000000    92.10000000    96.64000000
   C     71.85000000    93.03000000    96.44000000
   O     69.69000000    92.43000000    95.68000000
   H     72.02000000    90.83000000    98.43000000
   H     71.56000000    90.48000000    95.59000000
   H     70.27000000    92.35000000    97.62000000
   H     69.55000000    93.37000000    95.78000000
   H     72.36000000    92.66000000    95.55000000
   H     71.45000000    93.99000000    96.10000000
   H     72.45000000    93.12000000    97.34000000
   N     69.32000000    89.45000000    95.66000000
   C     68.07000000    88.72000000    95.53000000
   C     66.94000000    89.36000000    96.33000000
   O     66.79000000    90.58000000    96.33000000
   C     67.67000000    88.64000000    94.06000000
   C     67.84000000    89.91000000    93.23000000
   C     68.41000000    87.44000000    93.47000000
   C     67.21000000    89.94000000    91.84000000
   H     69.68000000    89.80000000    94.78000000
   H     68.10000000    87.74000000    96.00000000
   H     66.60000000    88.44000000    94.04000000
   H     68.89000000    90.16000000    93.12000000
   H     67.39000000    90.75000000    93.76000000
   H     69.47000000    87.65000000    93.58000000
   H     68.29000000    86.51000000    94.02000000
   H     68.18000000    87.37000000    92.40000000
   H     66.14000000    89.87000000    92.02000000
   H     67.49000000    90.84000000    91.30000000
   H     67.50000000    89.15000000    91.14000000
   N     66.01000000    88.54000000    96.84000000
   C     64.94000000    88.83000000    97.78000000
   C     65.26000000    88.43000000    99.21000000
   O     64.60000000    88.96000000   100.10000000
   C     63.68000000    88.11000000    97.30000000
   C     62.50000000    88.59000000    98.13000000
   O     62.01000000    89.72000000    97.92000000
   O     62.00000000    87.86000000    99.01000000
   H     66.15000000    87.55000000    96.70000000
   H     64.79000000    89.91000000    97.72000000
   H     63.84000000    87.03000000    97.33000000
   H     63.50000000    88.31000000    96.24000000
   N     66.34000000    87.67000000    99.43000000
   C     66.75000000    87.31000000   100.77000000
   C     67.34000000    85.91000000   100.85000000
   O     66.94000000    85.17000000   101.75000000
   C     67.69000000    88.42000000   101.25000000
   C     68.23000000    88.20000000   102.64000000
   C     69.38000000    87.44000000   102.89000000
   C     67.65000000    88.96000000   103.66000000
   C     69.97000000    87.51000000   104.15000000
   C     68.27000000    89.08000000   104.91000000
   C     69.41000000    88.31000000   105.16000000
   H     66.96000000    87.42000000    98.67000000
   H     65.82000000    87.31000000   101.34000000
   H     67.13000000    89.36000000   101.25000000
   H     68.52000000    88.51000000   100.55000000
   H     69.87000000    86.85000000   102.13000000
   H     66.85000000    89.68000000   103.50000000
   H     70.93000000    87.05000000   104.31000000
   H     67.96000000    89.71000000   105.73000000
   H     69.87000000    88.36000000   106.13000000
   N     68.31000000    85.50000000   100.03000000
   C     68.93000000    85.98000000    98.81000000
   C     68.44000000    85.39000000    97.50000000
   O     69.02000000    85.59000000    96.43000000
   C     70.44000000    85.86000000    99.05000000
   C     70.48000000    84.53000000    99.78000000
   C     69.08000000    84.31000000   100.35000000
   H     68.84000000    87.06000000    98.74000000
   H     71.02000000    85.90000000    98.13000000
   H     70.78000000    86.63000000    99.74000000
   H     70.79000000    83.78000000    99.06000000
   H     71.13000000    84.60000000   100.65000000
   H     68.66000000    83.40000000    99.93000000
   H     69.13000000    84.13000000   101.42000000
   N     67.31000000    84.68000000    97.49000000
   C     66.85000000    83.95000000    96.32000000
   C     65.94000000    84.82000000    95.47000000
   O     65.75000000    86.02000000    95.70000000
   C     66.14000000    82.70000000    96.83000000
   C     66.91000000    81.46000000    97.28000000
   C     66.13000000    80.57000000    98.23000000
   O     66.39000000    80.54000000    99.46000000
   O     65.25000000    79.78000000    97.82000000
   H     66.70000000    84.60000000    98.29000000
   H     67.63000000    83.68000000    95.60000000
   H     65.48000000    82.31000000    96.06000000
   H     65.40000000    83.01000000    97.57000000
   H     67.82000000    81.78000000    97.78000000
   H     67.27000000    80.85000000    96.45000000
   N     65.47000000    84.24000000    94.36000000
   C     64.66000000    84.96000000    93.40000000
   H     63.76000000    85.33100000    93.89000000
   H     65.22800000    85.80100000    93.00200000
   H     64.38000000    84.29200000    92.58600000
   H     65.80000000    83.34000000    94.04000000
  Ca     65.32000000    99.15000000    97.26000000
   O     65.30000000   101.43300000    95.67000000
   H     65.38000000   102.32300000    96.00000000
   H     65.40000000   101.52300000    94.72000000
   O     63.70000000   101.03300000    98.47000000
   H     63.43000000   101.64300000    97.79000000
   H     63.45000000   101.47300000    99.29000000
   O     62.52000000    99.40000000    96.40000000
   H     62.75000000    99.59000000    95.49000000
   H     61.81000000   100.02000000    96.60000000
   O     67.58000000    99.80300000    96.06000000
   H     68.38000000    99.73300000    95.55000000
   H     67.44000000   100.74300000    96.17000000
   O     63.84000000    96.96000000    97.94000000
   H     63.15000000    96.45000000    97.53000000
   H     64.29000000    96.34000000    98.52000000
   O     66.70000000   101.01300000    98.46000000
   H     66.54000000   101.87300000    98.08000000
   H     66.94000000   101.18300000    99.37000000

Ca 1.00



