%chk=loop4.apoCaM-CA-Ng.Init293.run3.water5.chk
%nprocshared=20
%mem=10GB
%nosave
#b3lyp/svp scf=(tight,noincore,xqc) Test 
#IOP(5/87=12) Density=Current Pop=(MK,readradii) iop(6/33=2) iop(6/42=6)

loop4.apoCaM-CA-Ng.Init293.run3.water5 

   -3  1 
   C     41.68000000    52.23000000    61.74000000
   C     42.18000000    52.39000000    63.17000000
   O     43.13000000    51.73000000    63.59000000
   H     40.80700000    52.86400000    61.58800000
   H     42.46600000    52.52300000    61.04500000
   H     41.40800000    51.18900000    61.56400000
   N     41.54000000    53.22000000    64.00000000
   C     41.88000000    53.57000000    65.37000000
   C     43.31000000    54.05000000    65.59000000
   O     44.01000000    53.63000000    66.51000000
   C     41.22000000    52.60000000    66.35000000
   C     41.71000000    51.16000000    66.32000000
   O     40.76000000    50.36000000    66.16000000
   O     42.89000000    50.79000000    66.41000000
   H     40.72000000    53.66000000    63.64000000
   H     41.39000000    54.54000000    65.48000000
   H     40.14000000    52.59000000    66.21000000
   H     41.47000000    52.98000000    67.34000000
   N     43.79000000    54.94000000    64.73000000
   C     45.07000000    55.63000000    64.77000000
   C     45.03000000    56.61000000    65.93000000
   O     45.83000000    56.53000000    66.87000000
   C     46.34000000    54.79000000    64.64000000
   C     47.47000000    55.71000000    64.19000000
   C     46.25000000    53.55000000    63.76000000
   C     48.85000000    55.06000000    64.28000000
   H     43.22000000    55.26000000    63.96000000
   H     45.08000000    56.30000000    63.91000000
   H     46.66000000    54.40000000    65.60000000
   H     47.46000000    56.61000000    64.79000000
   H     47.32000000    55.93000000    63.14000000
   H     46.37000000    53.74000000    62.69000000
   H     47.01000000    52.84000000    64.10000000
   H     45.30000000    53.05000000    63.90000000
   H     49.00000000    54.19000000    63.64000000
   H     49.66000000    55.78000000    64.20000000
   H     48.93000000    54.65000000    65.29000000
   N     44.14000000    57.60000000    65.81000000
   C     43.91000000    58.76000000    66.65000000
   C     42.73000000    58.43000000    67.55000000
   O     41.56000000    58.75000000    67.33000000
   C     43.54000000    59.95000000    65.76000000
   C     42.53000000    59.86000000    64.62000000
   O     42.04000000    60.88000000    64.09000000
   O     42.28000000    58.78000000    64.05000000
   H     43.62000000    57.60000000    64.94000000
   H     44.77000000    58.97000000    67.28000000
   H     44.47000000    60.23000000    65.28000000
   H     43.33000000    60.80000000    66.40000000
   N     42.98000000    57.85000000    68.72000000
   C     44.09000000    57.16000000    69.36000000
   C     43.95000000    55.65000000    69.29000000
   O     42.81000000    55.19000000    69.25000000
   H     42.10000000    57.71000000    69.21000000
   H     44.12000000    57.48000000    70.40000000
   H     45.00000000    57.56000000    68.92000000
   N     44.99000000    54.82000000    69.41000000
   C     46.36000000    55.10000000    69.76000000
   C     47.23000000    54.19000000    68.90000000
   O     47.03000000    52.98000000    68.81000000
   C     46.63000000    54.90000000    71.25000000
   C     48.12000000    55.12000000    71.47000000
   O     48.94000000    54.19000000    71.28000000
   O     48.45000000    56.28000000    71.80000000
   H     44.73000000    53.84000000    69.35000000
   H     46.63000000    56.11000000    69.43000000
   H     46.31000000    53.90000000    71.52000000
   H     46.02000000    55.62000000    71.80000000
   N     48.29000000    54.62000000    68.21000000
   C     48.88000000    55.94000000    68.08000000
   C     50.39000000    55.97000000    67.87000000
   O     50.86000000    56.77000000    67.07000000
   H     48.75000000    53.88000000    67.70000000
   H     48.61000000    56.45000000    68.99000000
   H     48.38000000    56.43000000    67.24000000
   N     51.11000000    55.03000000    68.48000000
   C     52.52000000    55.23000000    68.73000000
   C     53.39000000    54.98000000    67.51000000
   O     54.62000000    54.88000000    67.52000000
   C     52.99000000    54.25000000    69.80000000
   C     52.90000000    52.74000000    69.61000000
   C     52.98000000    52.01000000    70.94000000
   N     52.10000000    51.02000000    71.09000000
   O     53.81000000    52.24000000    71.82000000
   H     50.67000000    54.35000000    69.09000000
   H     52.75000000    56.26000000    69.01000000
   H     52.53000000    54.42000000    70.77000000
   H     54.05000000    54.42000000    70.00000000
   H     53.74000000    52.46000000    68.96000000
   H     51.92000000    52.61000000    69.16000000
   H     51.47000000    50.84000000    70.33000000
   H     51.97000000    50.59000000    72.00000000
   N     52.80000000    54.80000000    66.32000000
   C     53.52000000    54.33000000    65.16000000
   C     53.64000000    52.82000000    65.28000000
   O     52.64000000    52.11000000    65.39000000
   C     52.76000000    54.65000000    63.87000000
   C     53.66000000    54.29000000    62.69000000
   C     52.30000000    56.11000000    63.85000000
   H     51.80000000    54.88000000    66.21000000
   H     54.48000000    54.83000000    65.18000000
   H     51.90000000    54.00000000    63.78000000
   H     54.48000000    55.00000000    62.61000000
   H     53.97000000    53.24000000    62.77000000
   H     53.12000000    54.51000000    61.77000000
   H     53.12000000    56.81000000    63.98000000
   H     51.60000000    56.32000000    63.05000000
   H     51.70000000    56.29000000    64.74000000
   N     54.88000000    52.33000000    65.37000000
   C     55.21000000    50.92000000    65.21000000
   C     54.56000000    50.28000000    63.99000000
   O     54.84000000    50.69000000    62.87000000
   C     55.03000000    50.17000000    66.52000000
   C     55.97000000    50.60000000    67.64000000
   N     55.73000000    50.14000000    68.87000000
   O     56.86000000    51.39000000    67.35000000
   H     55.57000000    53.05000000    65.46000000
   H     56.27000000    50.84000000    64.98000000
   H     55.28000000    49.14000000    66.31000000
   H     54.01000000    50.26000000    66.91000000
   H     54.88000000    49.67000000    69.15000000
   H     56.41000000    50.45000000    69.55000000
   N     53.80000000    49.19000000    64.16000000
   C     53.66000000    48.18000000    63.13000000
   C     52.19000000    47.96000000    62.78000000
   O     51.27000000    48.07000000    63.58000000
   C     54.36000000    46.91000000    63.59000000
   C     55.66000000    47.06000000    64.33000000
   C     55.86000000    46.54000000    65.62000000
   C     56.71000000    47.82000000    63.80000000
   C     56.97000000    46.82000000    66.41000000
   C     57.91000000    48.03000000    64.50000000
   C     57.97000000    47.64000000    65.85000000
   O     59.08000000    47.83000000    66.61000000
   H     53.68000000    48.93000000    65.13000000
   H     54.23000000    48.45000000    62.24000000
   H     54.55000000    46.29000000    62.71000000
   H     53.73000000    46.34000000    64.27000000
   H     55.00000000    46.04000000    66.06000000
   H     56.67000000    48.31000000    62.84000000
   H     57.13000000    46.44000000    67.41000000
   H     58.77000000    48.47000000    64.01000000
   H     59.78000000    48.36000000    66.23000000
   N     51.94000000    47.47000000    61.56000000
   C     50.65000000    47.12000000    61.01000000
   C     49.59000000    48.21000000    61.06000000
   O     48.43000000    47.84000000    61.25000000
   C     50.16000000    45.71000000    61.32000000
   C     51.25000000    44.65000000    61.46000000
   C     50.83000000    43.22000000    61.78000000
   O     49.91000000    42.88000000    62.55000000
   O     51.58000000    42.35000000    61.30000000
   H     52.77000000    47.14000000    61.08000000
   H     50.89000000    47.06000000    59.95000000
   H     49.53000000    45.43000000    60.48000000
   H     49.57000000    45.73000000    62.24000000
   H     51.93000000    44.93000000    62.26000000
   H     51.79000000    44.73000000    60.52000000
   N     49.99000000    49.48000000    60.92000000
   C     49.05000000    50.58000000    60.86000000
   C     49.36000000    51.35000000    59.58000000
   O     48.53000000    51.56000000    58.71000000
   C     49.07000000    51.45000000    62.11000000
   C     48.81000000    50.71000000    63.42000000
   C     47.43000000    50.09000000    63.60000000
   O     47.30000000    49.36000000    64.61000000
   O     46.42000000    50.47000000    62.96000000
   H     50.98000000    49.59000000    61.05000000
   H     48.03000000    50.24000000    60.70000000
   H     48.49000000    52.37000000    62.06000000
   H     50.06000000    51.89000000    62.24000000
   H     48.92000000    51.45000000    64.21000000
   H     49.59000000    49.96000000    63.56000000
   N     50.65000000    51.62000000    59.35000000
   C     51.26000000    52.25000000    58.19000000
   H     52.27000000    51.86200000    58.05600000
   H     50.66600000    52.03100000    57.30300000
   H     51.30300000    53.32800000    58.34200000
   H     51.34000000    51.40000000    60.05000000
  Ca     44.73000000    49.71000000    64.87000000
   O     45.05000000    46.80000000    65.22000000
   H     45.58000000    46.32000000    65.85000000
   H     44.40000000    46.17000000    64.92000000
   O     45.86000000    51.68000000    66.28000000
   H     46.38000000    51.71000000    67.07000000
   H     45.23000000    52.40000000    66.38000000
   O     43.81000000    48.70000000    62.50000000
   H     44.30000000    48.45000000    61.72000000
   H     42.93000000    48.33000000    62.36000000
   O     45.04000000    48.60000000    67.24000000
   H     45.74000000    48.43000000    67.86000000
   H     44.80000000    47.74000000    66.90000000
   O     42.44000000    48.44000000    65.25000000
   H     42.16000000    47.69000000    65.78000000
   H     41.98000000    49.19000000    65.62000000

Ca 1.00



