%chk=loop3.holoCaM-CaMKII.run82.water2.chk
%nprocshared=20
%mem=10GB
%nosave
#b3lyp/svp scf=(tight,noincore,xqc) Test 
#IOP(5/87=12) Density=Current Pop=(MK,readradii) iop(6/33=2) iop(6/42=6)

loop3.holoCaM-CaMKII.run82.water2 

   0  1 
   C     39.47000000    46.55000000    89.99600000
   C     39.25000000    45.07000000    90.30600000
   O     40.05000000    44.49000000    91.03600000
   H     40.43900000    46.68000000    89.51500000
   H     38.68400000    46.90300000    89.32900000
   H     39.44600000    47.12300000    90.92300000
   N     38.14000000    44.51000000    89.83600000
   C     38.05000000    43.06000000    89.75600000
   C     39.09000000    42.47000000    88.81600000
   O     39.07000000    42.75000000    87.61600000
   C     36.64000000    42.67000000    89.35600000
   C     36.45000000    41.16000000    89.20600000
   O     35.60000000    40.82000000    88.35600000
   O     37.06000000    40.38000000    89.96600000
   H     37.56000000    45.10000000    89.25600000
   H     38.19000000    42.66000000    90.75600000
   H     36.57000000    43.08000000    88.34600000
   H     35.93000000    43.16000000    90.02600000
   N     40.04000000    41.69000000    89.34600000
   C     41.15000000    41.20000000    88.54600000
   C     40.67000000    40.16000000    87.53600000
   O     41.24000000    40.12000000    86.44600000
   C     42.20000000    40.67000000    89.51600000
   C     43.46000000    40.06000000    88.89600000
   C     44.47000000    39.53000000    89.90600000
   C     45.76000000    39.05000000    89.25600000
   N     46.63000000    38.36000000    90.22600000
   H     40.08000000    41.55000000    90.34600000
   H     41.69000000    42.02000000    88.06600000
   H     41.71000000    39.92000000    90.13600000
   H     42.49000000    41.35000000    90.31600000
   H     43.83000000    40.90000000    88.29600000
   H     43.10000000    39.27000000    88.24600000
   H     44.07000000    38.70000000    90.49600000
   H     44.67000000    40.26000000    90.68600000
   H     46.33000000    39.86000000    88.79600000
   H     45.56000000    38.34000000    88.44600000
   H     47.50000000    38.02000000    89.83600000
   H     46.86000000    38.95000000    91.00600000
   H     46.13000000    37.57000000    90.60600000
   N     39.70000000    39.31000000    87.86600000
   C     39.56000000    37.97000000    87.32600000
   C     38.20000000    37.64000000    86.72600000
   O     37.94000000    36.55000000    86.21600000
   C     39.84000000    36.95000000    88.42600000
   C     39.12000000    37.29000000    89.72600000
   O     39.76000000    37.74000000    90.70600000
   O     37.89000000    37.11000000    89.86600000
   H     39.30000000    39.60000000    88.74600000
   H     40.34000000    37.84000000    86.57600000
   H     40.91000000    36.79000000    88.55600000
   H     39.55000000    35.96000000    88.07600000
   N     37.25000000    38.57000000    86.85600000
   C     36.03000000    38.56000000    86.07600000
   C     34.83000000    37.80000000    86.61600000
   O     34.09000000    37.16000000    85.87600000
   H     37.49000000    39.44000000    87.30600000
   H     36.19000000    38.15000000    85.07600000
   H     35.78000000    39.60000000    85.87600000
   N     34.72000000    37.80000000    87.94600000
   C     33.60000000    37.18000000    88.62600000
   C     32.66000000    38.15000000    89.33600000
   O     31.56000000    37.72000000    89.67600000
   C     34.17000000    36.16000000    89.60600000
   C     34.78000000    36.70000000    90.88600000
   N     34.46000000    36.13000000    92.04600000
   O     35.30000000    37.81000000    91.03600000
   H     35.37000000    38.42000000    88.39600000
   H     32.98000000    36.58000000    87.95600000
   H     34.80000000    35.40000000    89.13600000
   H     33.34000000    35.58000000    90.01600000
   H     34.16000000    35.17000000    92.13600000
   H     34.80000000    36.56000000    92.89600000
   N     32.94000000    39.44000000    89.52600000
   C     32.02000000    40.44000000    90.04600000
   C     32.16000000    40.86000000    91.50600000
   O     31.37000000    41.60000000    92.07600000
   H     33.78000000    39.83000000    89.12600000
   H     31.00000000    40.07000000    89.93600000
   H     32.12000000    41.32000000    89.40600000
   N     33.29000000    40.52000000    92.12600000
   C     33.59000000    40.80000000    93.51600000
   C     35.07000000    41.12000000    93.64600000
   O     35.89000000    40.56000000    92.91600000
   C     33.14000000    39.61000000    94.36600000
   C     31.65000000    39.40000000    94.35600000
   C     30.68000000    40.28000000    94.85600000
   C     31.19000000    38.13000000    93.98600000
   C     29.34000000    39.91000000    94.94600000
   C     29.85000000    37.72000000    94.06600000
   C     28.90000000    38.61000000    94.61600000
   O     27.65000000    38.12000000    94.84600000
   H     33.94000000    39.97000000    91.58600000
   H     33.06000000    41.70000000    93.84600000
   H     33.56000000    39.70000000    95.36600000
   H     33.59000000    38.78000000    93.82600000
   H     31.02000000    41.25000000    95.20600000
   H     31.90000000    37.46000000    93.51600000
   H     28.65000000    40.63000000    95.36600000
   H     29.54000000    36.78000000    93.64600000
   H     27.09000000    38.91000000    94.90600000
   N     35.52000000    41.98000000    94.56600000
   C     36.90000000    42.37000000    94.79600000
   C     37.29000000    41.76000000    96.13600000
   O     36.55000000    41.98000000    97.08600000
   C     37.13000000    43.86000000    94.63600000
   C     36.75000000    44.33000000    93.23600000
   C     38.58000000    44.30000000    94.87600000
   C     36.29000000    45.78000000    93.16600000
   H     34.77000000    42.52000000    94.96600000
   H     37.52000000    41.80000000    94.10600000
   H     36.55000000    44.38000000    95.39600000
   H     35.94000000    43.69000000    92.87600000
   H     37.55000000    44.13000000    92.51600000
   H     38.75000000    44.01000000    95.90600000
   H     39.33000000    43.89000000    94.19600000
   H     38.68000000    45.39000000    94.81600000
   H     36.07000000    46.07000000    92.13600000
   H     35.42000000    46.01000000    93.76600000
   H     37.11000000    46.43000000    93.48600000
   N     38.44000000    41.09000000    96.26600000
   C     39.06000000    40.60000000    97.47600000
   C     40.46000000    41.16000000    97.70600000
   O     40.97000000    41.99000000    96.95600000
   C     39.05000000    39.09000000    97.24600000
   O     39.84000000    38.55000000    96.21600000
   H     38.87000000    40.72000000    95.42600000
   H     38.42000000    40.82000000    98.33600000
   H     38.01000000    38.85000000    96.99600000
   H     39.24000000    38.56000000    98.17600000
   H     39.44000000    38.84000000    95.39600000
   N     41.00000000    41.03000000    98.91600000
   C     42.27000000    41.52000000    99.41600000
   C     43.41000000    41.40000000    98.40600000
   O     44.07000000    42.40000000    98.11600000
   C     42.62000000    40.94000000   100.78600000
   H     40.49000000    40.50000000    99.61600000
   H     42.18000000    42.59000000    99.56600000
   H     42.09000000    41.58000000   101.49600000
   H     42.23000000    39.92000000   100.86600000
   H     43.70000000    41.02000000   100.91600000
   N     43.68000000    40.24000000    97.80600000
   C     44.83000000    40.02000000    96.95600000
   C     44.62000000    40.67000000    95.59600000
   O     45.60000000    40.98000000    94.91600000
   C     44.88000000    38.51000000    96.73600000
   H     43.20000000    39.45000000    98.20600000
   H     45.76000000    40.44000000    97.35600000
   H     44.08000000    38.14000000    96.09600000
   H     45.82000000    38.26000000    96.24600000
   H     44.76000000    37.94000000    97.65600000
   N     43.39000000    41.07000000    95.28600000
   C     43.10000000    41.91000000    94.14600000
   C     43.35000000    43.37000000    94.52600000
   O     43.70000000    44.08000000    93.58600000
   C     41.70000000    41.72000000    93.58600000
   C     41.30000000    40.24000000    93.51600000
   C     39.84000000    40.10000000    93.12600000
   O     39.51000000    40.49000000    91.98600000
   O     39.01000000    39.53000000    93.86600000
   H     42.64000000    40.96000000    95.95600000
   H     43.84000000    41.75000000    93.36600000
   H     41.70000000    42.16000000    92.59600000
   H     40.96000000    42.26000000    94.16600000
   H     41.47000000    39.74000000    94.46600000
   H     41.78000000    39.72000000    92.68600000
   N     43.11000000    43.80000000    95.76600000
   C     43.51000000    45.16000000    96.05600000
   H     44.44500000    45.38100000    95.54100000
   H     42.73600000    45.84800000    95.71400000
   H     43.65100000    45.27600000    97.13000000
   H     42.78000000    43.19000000    96.49600000
  Ca     37.61000000    38.80000000    91.86000000
   O     38.46000000    36.24000000    92.75000000
   H     39.08000000    35.99000000    92.06000000
   H     38.63000000    35.61000000    93.45000000
   O     36.22000000    37.55000000    93.87000000
   H     36.63000000    36.68000000    93.88000000
   H     35.97000000    37.71000000    94.78000000

Ca 1.00



