%chk=loop2.apoCaM-CA-Ng.Init31.run61.water3.chk
%nprocshared=20
%mem=10GB
%nosave
#b3lyp/svp scf=(tight,noincore,xqc) Test 
#IOP(5/87=12) Density=Current Pop=(MK,readradii) iop(6/33=2) iop(6/42=6)

loop2.apoCaM-CA-Ng.Init31.run61.water3 

   -2  1 
   C     84.07000000    79.98000000    -2.00000000
   C     82.82000000    79.13000000    -2.02000000
   O     82.72000000    78.14000000    -1.30000000
   H     84.87000000    79.46100000    -2.52800000
   H     83.87000000    80.93300000    -2.49000000
   H     84.37300000    80.15800000    -0.96800000
   N     81.80000000    79.36000000    -2.86000000
   C     81.42000000    80.60000000    -3.50000000
   C     80.84000000    80.21000000    -4.85000000
   O     80.05000000    79.27000000    -4.87000000
   C     80.46000000    81.41000000    -2.63000000
   C     79.29000000    80.71000000    -1.95000000
   O     79.09000000    79.48000000    -2.03000000
   O     78.45000000    81.37000000    -1.30000000
   H     81.01000000    78.75000000    -2.76000000
   H     82.33000000    81.18000000    -3.68000000
   H     80.00000000    82.21000000    -3.21000000
   H     81.07000000    81.98000000    -1.93000000
   N     81.04000000    80.98000000    -5.92000000
   C     80.63000000    80.93000000    -7.31000000
   C     79.13000000    81.08000000    -7.50000000
   O     78.66000000    81.82000000    -8.37000000
   C     81.41000000    79.80000000    -7.97000000
   H     81.62000000    81.76000000    -5.65000000
   H     81.03000000    81.71000000    -7.97000000
   H     82.48000000    79.89000000    -7.76000000
   H     81.06000000    78.89000000    -7.49000000
   H     81.12000000    79.69000000    -9.02000000
   N     78.34000000    80.34000000    -6.72000000
   C     76.89000000    80.39000000    -6.71000000
   C     76.39000000    80.56000000    -5.28000000
   O     76.99000000    80.14000000    -4.30000000
   C     76.29000000    79.10000000    -7.24000000
   C     76.77000000    77.74000000    -6.74000000
   O     76.15000000    76.74000000    -7.15000000
   O     77.74000000    77.64000000    -5.96000000
   H     78.82000000    79.68000000    -6.12000000
   H     76.54000000    81.29000000    -7.22000000
   H     76.54000000    79.07000000    -8.30000000
   H     75.20000000    79.09000000    -7.35000000
   N     75.21000000    81.18000000    -5.23000000
   C     74.31000000    81.21000000    -4.09000000
   C     73.55000000    79.90000000    -3.97000000
   O     73.23000000    79.28000000    -4.98000000
   H     74.85000000    81.58000000    -6.09000000
   H     73.60000000    82.02000000    -4.25000000
   H     74.89000000    81.45000000    -3.20000000
   N     73.07000000    79.56000000    -2.77000000
   C     72.25000000    78.43000000    -2.36000000
   C     71.39000000    78.86000000    -1.18000000
   O     71.78000000    79.73000000    -0.41000000
   C     73.12000000    77.26000000    -1.92000000
   C     74.24000000    76.89000000    -2.89000000
   N     74.04000000    76.06000000    -3.92000000
   O     75.34000000    77.43000000    -2.90000000
   H     73.40000000    80.17000000    -2.04000000
   H     71.63000000    78.21000000    -3.23000000
   H     72.42000000    76.42000000    -1.82000000
   H     73.49000000    77.44000000    -0.91000000
   H     73.22000000    75.48000000    -3.94000000
   H     74.79000000    75.92000000    -4.58000000
   N     70.28000000    78.19000000    -0.87000000
   C     69.43000000    78.47000000     0.27000000
   C     68.48000000    77.31000000     0.57000000
   O     68.34000000    76.40000000    -0.24000000
   H     70.07000000    77.38000000    -1.44000000
   H     68.92000000    79.43000000     0.17000000
   H     70.08000000    78.64000000     1.12000000
   N     67.85000000    77.26000000     1.74000000
   C     68.29000000    77.75000000     3.03000000
   C     69.49000000    77.17000000     3.77000000
   O     69.98000000    77.83000000     4.68000000
   C     67.09000000    77.85000000     3.97000000
   C     65.95000000    78.69000000     3.41000000
   O     66.62000000    76.54000000     4.23000000
   H     67.07000000    76.61000000     1.80000000
   H     68.61000000    78.75000000     2.73000000
   H     67.48000000    78.30000000     4.89000000
   H     66.90000000    76.37000000     5.14000000
   H     65.45000000    79.19000000     4.23000000
   H     66.30000000    79.53000000     2.81000000
   H     65.17000000    78.21000000     2.82000000
   N     69.93000000    75.95000000     3.43000000
   C     71.15000000    75.37000000     3.94000000
   C     71.13000000    75.20000000     5.45000000
   O     71.67000000    76.02000000     6.19000000
   C     72.39000000    76.04000000     3.35000000
   C     72.29000000    76.30000000     1.85000000
   C     73.63000000    75.21000000     3.65000000
   C     71.91000000    75.06000000     1.05000000
   H     69.29000000    75.42000000     2.85000000
   H     71.24000000    74.35000000     3.56000000
   H     72.56000000    77.01000000     3.83000000
   H     73.28000000    76.56000000     1.48000000
   H     71.55000000    77.05000000     1.56000000
   H     74.55000000    75.67000000     3.29000000
   H     73.73000000    75.11000000     4.74000000
   H     73.52000000    74.27000000     3.10000000
   H     72.48000000    74.20000000     1.40000000
   H     70.86000000    74.79000000     1.17000000
   H     72.20000000    75.27000000     0.02000000
   N     70.63000000    74.07000000     5.95000000
   C     69.77000000    73.07000000     5.34000000
   C     70.52000000    71.82000000     4.91000000
   O     70.12000000    70.97000000     4.12000000
   C     68.58000000    72.76000000     6.24000000
   C     68.95000000    72.16000000     7.59000000
   O     68.07000000    71.46000000     8.15000000
   O     70.06000000    72.42000000     8.10000000
   H     70.65000000    74.09000000     6.96000000
   H     69.30000000    73.42000000     4.42000000
   H     67.81000000    72.15000000     5.77000000
   H     68.07000000    73.70000000     6.47000000
   N     71.66000000    71.58000000     5.57000000
   C     72.64000000    70.52000000     5.47000000
   C     72.21000000    69.25000000     6.18000000
   O     71.23000000    69.27000000     6.93000000
   C     73.95000000    71.10000000     6.00000000
   C     74.16000000    71.44000000     7.46000000
   C     73.98000000    72.75000000     7.91000000
   C     74.75000000    70.50000000     8.31000000
   C     74.13000000    73.07000000     9.27000000
   C     75.05000000    70.84000000     9.63000000
   C     74.66000000    72.09000000    10.13000000
   H     71.75000000    72.30000000     6.28000000
   H     72.80000000    70.31000000     4.41000000
   H     74.08000000    72.06000000     5.49000000
   H     74.86000000    70.56000000     5.75000000
   H     73.71000000    73.53000000     7.22000000
   H     74.92000000    69.45000000     8.08000000
   H     73.80000000    74.05000000     9.56000000
   H     75.42000000    70.11000000    10.33000000
   H     74.86000000    72.35000000    11.15000000
   N     72.87000000    68.10000000     6.04000000
   C     73.98000000    67.82000000     5.15000000
   C     73.81000000    67.94000000     3.64000000
   O     72.69000000    68.24000000     3.22000000
   C     74.43000000    66.41000000     5.53000000
   C     74.07000000    66.33000000     7.01000000
   C     72.70000000    66.98000000     6.95000000
   H     74.82000000    68.45000000     5.45000000
   H     73.82000000    65.70000000     4.97000000
   H     75.50000000    66.26000000     5.36000000
   H     74.05000000    65.32000000     7.43000000
   H     74.69000000    66.94000000     7.66000000
   H     71.95000000    66.35000000     6.47000000
   H     72.39000000    67.28000000     7.95000000
   N     74.86000000    67.82000000     2.83000000
   C     74.86000000    67.94000000     1.39000000
   C     75.88000000    68.87000000     0.74000000
   O     76.15000000    68.79000000    -0.46000000
   C     75.02000000    66.53000000     0.83000000
   C     73.72000000    65.73000000     0.87000000
   C     73.72000000    64.70000000    -0.25000000
   O     72.74000000    64.62000000    -1.03000000
   O     74.74000000    64.00000000    -0.43000000
   H     75.75000000    67.58000000     3.24000000
   H     73.91000000    68.42000000     1.14000000
   H     75.77000000    65.97000000     1.39000000
   H     75.23000000    66.60000000    -0.23000000
   H     72.84000000    66.36000000     0.86000000
   H     73.65000000    65.16000000     1.80000000
   N     76.72000000    69.67000000     1.39000000
   C     76.81000000    70.20000000     2.74000000
   H     77.22600000    71.20700000     2.70700000
   H     75.81600000    70.23200000     3.18500000
   H     77.45700000    69.56000000     3.34000000
   H     77.41000000    70.06000000     0.76000000
  Ca     77.99000000    77.82000000    -3.52100000
   O     77.67000000    76.81000000    -1.09100000
   H     77.06000000    77.36000000    -0.61100000
   H     78.47000000    76.80000000    -0.56100000
   O     77.60000000    75.22000000    -4.18100000
   H     77.23000000    74.46000000    -3.73100000
   H     77.93000000    74.87000000    -5.01100000
   O     80.27000000    76.17000000    -3.39100000
   H     80.20000000    75.22000000    -3.52100000
   H     81.20000000    76.36000000    -3.54100000

Ca 1.00



