%chk=loop4.holoCaM.run62.water2.chk
%nprocshared=20
%mem=10GB
%nosave
#b3lyp/svp scf=(tight,noincore,xqc) Test 
#IOP(5/87=12) Density=Current Pop=(MK,readradii) iop(6/33=2) iop(6/42=6)

loop4.holoCaM.run62.water2 

   -3  1 
   C     98.09000000    61.71000000    18.20000000
   C     97.91000000    63.15000000    17.74000000
   O     97.38000000    63.47000000    16.67000000
   H     98.94800000    61.64800000    18.86900000
   H     97.19400000    61.38200000    18.72700000
   H     98.25800000    61.07000000    17.33400000
   N     98.41000000    64.02000000    18.62000000
   C     98.49000000    65.46000000    18.52000000
   C     99.38000000    65.93000000    17.38000000
   O    100.51000000    65.44000000    17.31000000
   C     98.91000000    65.97000000    19.90000000
   C     99.19000000    67.46000000    19.96000000
   O    100.08000000    67.78000000    20.77000000
   O     98.47000000    68.19000000    19.24000000
   H     98.88000000    63.69000000    19.46000000
   H     97.45000000    65.72000000    18.29000000
   H     99.83000000    65.43000000    20.12000000
   H     98.17000000    65.80000000    20.68000000
   N     99.09000000    66.94000000    16.56000000
   C     99.86000000    67.48000000    15.46000000
   C    100.44000000    68.85000000    15.80000000
   O    101.31000000    69.20000000    15.00000000
   C     99.13000000    67.38000000    14.13000000
   C     97.84000000    68.20000000    14.17000000
   C     98.73000000    65.98000000    13.69000000
   C     97.34000000    68.43000000    12.74000000
   H     98.17000000    67.34000000    16.60000000
   H    100.75000000    66.85000000    15.43000000
   H     99.82000000    67.81000000    13.40000000
   H     98.05000000    69.15000000    14.66000000
   H     97.01000000    67.78000000    14.73000000
   H     98.04000000    65.91000000    12.84000000
   H     99.66000000    65.50000000    13.38000000
   H     98.22000000    65.43000000    14.49000000
   H     98.14000000    68.73000000    12.06000000
   H     96.71000000    67.58000000    12.49000000
   H     96.72000000    69.32000000    12.78000000
   N    100.06000000    69.61000000    16.83000000
   C    100.42000000    71.00000000    16.99000000
   C    100.70000000    71.37000000    18.44000000
   O    100.39000000    72.50000000    18.82000000
   C     99.33000000    71.83000000    16.32000000
   C     97.88000000    71.63000000    16.71000000
   O     97.60000000    70.62000000    17.39000000
   O     96.98000000    72.42000000    16.36000000
   H     99.46000000    69.19000000    17.53000000
   H    101.33000000    71.20000000    16.42000000
   H     99.30000000    71.63000000    15.25000000
   H     99.63000000    72.87000000    16.51000000
   N    101.30000000    70.42000000    19.16000000
   C    102.10000000    70.74000000    20.32000000
   C    101.30000000    71.12000000    21.56000000
   O    101.64000000    72.01000000    22.34000000
   H    101.51000000    69.53000000    18.73000000
   H    102.89000000    71.47000000    20.17000000
   H    102.54000000    69.76000000    20.52000000
   N    100.12000000    70.52000000    21.73000000
   C     99.15000000    70.74000000    22.78000000
   C     98.84000000    69.57000000    23.71000000
   O     98.27000000    69.72000000    24.79000000
   C     97.88000000    71.41000000    22.26000000
   C     96.96000000    70.71000000    21.28000000
   O     96.23000000    71.36000000    20.50000000
   O     96.93000000    69.46000000    21.29000000
   H     99.85000000    69.81000000    21.07000000
   H     99.51000000    71.46000000    23.52000000
   H     98.12000000    72.39000000    21.84000000
   H     97.28000000    71.69000000    23.13000000
   N     99.17000000    68.34000000    23.32000000
   C     98.84000000    67.10000000    24.00000000
   C     97.43000000    66.58000000    23.75000000
   O     97.09000000    65.63000000    24.45000000
   H     99.56000000    68.23000000    22.40000000
   H     99.03000000    67.24000000    25.07000000
   H     99.52000000    66.29000000    23.74000000
   N     96.53000000    67.18000000    22.98000000
   C     95.14000000    66.78000000    22.81000000
   C     94.83000000    66.46000000    21.35000000
   O     95.46000000    67.04000000    20.47000000
   C     94.22000000    67.90000000    23.28000000
   C     94.37000000    68.27000000    24.75000000
   C     93.27000000    69.22000000    25.21000000
   N     93.09000000    70.42000000    24.65000000
   O     92.54000000    68.94000000    26.16000000
   H     96.85000000    67.98000000    22.46000000
   H     94.97000000    65.90000000    23.42000000
   H     93.24000000    67.56000000    22.95000000
   H     94.40000000    68.79000000    22.67000000
   H     95.34000000    68.75000000    24.85000000
   H     94.28000000    67.37000000    25.35000000
   H     93.76000000    70.75000000    23.97000000
   H     92.38000000    70.99000000    25.08000000
   N     93.77000000    65.68000000    21.10000000
   C     93.07000000    65.57000000    19.84000000
   C     91.80000000    66.41000000    19.90000000
   O     90.93000000    66.25000000    20.76000000
   C     92.78000000    64.11000000    19.50000000
   C     94.15000000    63.48000000    19.26000000
   C     92.06000000    63.20000000    20.49000000
   H     93.27000000    65.21000000    21.84000000
   H     93.71000000    65.94000000    19.04000000
   H     92.25000000    64.09000000    18.55000000
   H     93.93000000    62.61000000    18.64000000
   H     94.96000000    64.09000000    18.86000000
   H     94.55000000    63.12000000    20.21000000
   H     92.03000000    62.16000000    20.16000000
   H     92.56000000    63.23000000    21.46000000
   H     91.02000000    63.50000000    20.56000000
   N     91.63000000    67.32000000    18.94000000
   C     90.39000000    67.78000000    18.35000000
   C     89.76000000    66.76000000    17.41000000
   O     90.31000000    65.72000000    17.07000000
   C     90.64000000    69.13000000    17.69000000
   C     90.87000000    68.99000000    16.19000000
   N     92.07000000    68.56000000    15.80000000
   O     90.01000000    69.08000000    15.32000000
   H     92.47000000    67.46000000    18.40000000
   H     89.69000000    67.89000000    19.18000000
   H     91.54000000    69.59000000    18.12000000
   H     89.79000000    69.80000000    17.82000000
   H     92.79000000    68.41000000    16.49000000
   H     92.15000000    68.35000000    14.81000000
   N     88.49000000    66.96000000    17.04000000
   C     87.78000000    66.14000000    16.08000000
   C     88.45000000    65.70000000    14.79000000
   O     88.39000000    64.55000000    14.34000000
   C     86.52000000    66.93000000    15.70000000
   C     85.53000000    66.29000000    14.76000000
   C     84.93000000    65.06000000    15.08000000
   C     85.22000000    66.89000000    13.53000000
   C     83.90000000    64.57000000    14.28000000
   C     84.28000000    66.37000000    12.64000000
   C     83.60000000    65.22000000    13.06000000
   O     82.68000000    64.63000000    12.24000000
   H     87.99000000    67.62000000    17.61000000
   H     87.41000000    65.31000000    16.68000000
   H     86.84000000    67.87000000    15.26000000
   H     85.93000000    67.23000000    16.56000000
   H     85.23000000    64.33000000    15.82000000
   H     85.70000000    67.83000000    13.28000000
   H     83.49000000    63.59000000    14.51000000
   H     84.02000000    66.92000000    11.74000000
   H     82.43000000    65.19000000    11.50000000
   N     89.23000000    66.54000000    14.11000000
   C     90.05000000    66.25000000    12.95000000
   C     91.26000000    65.39000000    13.27000000
   O     91.75000000    64.60000000    12.47000000
   C     90.40000000    67.60000000    12.33000000
   C     90.82000000    67.61000000    10.86000000
   C     89.77000000    67.08000000     9.90000000
   O     89.05000000    67.88000000     9.26000000
   O     89.58000000    65.84000000     9.86000000
   H     89.38000000    67.48000000    14.45000000
   H     89.42000000    65.63000000    12.32000000
   H     91.29000000    67.97000000    12.84000000
   H     89.66000000    68.38000000    12.48000000
   H     91.69000000    66.97000000    10.75000000
   H     91.13000000    68.63000000    10.66000000
   N     91.77000000    65.46000000    14.51000000
   C     92.81000000    64.57000000    15.00000000
   C     92.30000000    63.21000000    15.46000000
   O     92.99000000    62.24000000    15.17000000
   C     93.64000000    65.24000000    16.09000000
   C     94.63000000    66.29000000    15.58000000
   C     94.97000000    67.25000000    16.71000000
   O     94.10000000    67.80000000    17.42000000
   O     96.15000000    67.30000000    17.10000000
   H     91.37000000    66.11000000    15.16000000
   H     93.46000000    64.37000000    14.15000000
   H     94.18000000    64.45000000    16.62000000
   H     93.00000000    65.59000000    16.90000000
   H     94.13000000    66.82000000    14.77000000
   H     95.55000000    65.80000000    15.27000000
   N     91.07000000    63.10000000    15.97000000
   C     90.30000000    62.02000000    16.55000000
   H     89.33200000    61.95700000    16.05300000
   H     90.83700000    61.08000000    16.42100000
   H     90.15000000    62.21000000    17.61300000
   H     90.57000000    63.98000000    16.07000000
  Ca     96.06000000    69.24000000    18.92000000
   O     94.03000000    69.93000000    20.53000000
   H     93.84000000    69.27000000    21.20000000
   H     94.57000000    70.58000000    20.98000000
   O     94.87000000    71.39000000    17.63000000
   H     95.63000000    71.71000000    17.15000000
   H     94.33000000    72.17000000    17.78000000

Ca 1.00



