%chk=loop1.apoCaM-CA-Ng.Init293.run82.water5.chk
%nprocshared=20
%mem=10GB
%nosave
#b3lyp/svp scf=(tight,noincore,xqc) Test 
#IOP(5/87=12) Density=Current Pop=(MK,readradii) iop(6/33=2) iop(6/42=6)

loop1.apoCaM-CA-Ng.Init293.run82.water5 

   0  1 
   C     81.53000000    95.81000000    26.50000000
   C     82.90000000    95.83000000    25.85000000
   O     83.26000000    95.21000000    24.85000000
   H     80.79500000    95.43600000    25.78700000
   H     81.55100000    95.15900000    27.37400000
   H     81.25700000    96.82000000    26.80600000
   N     83.83000000    96.59000000    26.44000000
   C     85.10000000    96.99000000    25.88000000
   C     86.22000000    95.99000000    26.12000000
   O     87.37000000    96.29000000    25.79000000
   C     85.51000000    98.33000000    26.50000000
   C     85.93000000    98.32000000    27.96000000
   O     87.14000000    98.33000000    28.28000000
   O     85.04000000    98.49000000    28.82000000
   H     83.36000000    97.15000000    27.14000000
   H     84.86000000    97.10000000    24.82000000
   H     84.68000000    99.02000000    26.38000000
   H     86.37000000    98.74000000    25.97000000
   N     85.97000000    94.82000000    26.70000000
   C     87.07000000    94.07000000    27.28000000
   C     87.51000000    92.91000000    26.40000000
   O     86.72000000    92.04000000    26.03000000
   C     86.68000000    93.51000000    28.65000000
   C     86.30000000    94.60000000    29.65000000
   C     87.56000000    95.27000000    30.20000000
   C     87.20000000    96.15000000    31.38000000
   N     86.31000000    97.23000000    30.93000000
   H     85.03000000    94.45000000    26.82000000
   H     87.93000000    94.69000000    27.54000000
   H     87.55000000    92.95000000    28.98000000
   H     85.79000000    92.89000000    28.60000000
   H     85.72000000    94.20000000    30.47000000
   H     85.63000000    95.35000000    29.23000000
   H     88.08000000    95.82000000    29.42000000
   H     88.16000000    94.41000000    30.53000000
   H     88.05000000    96.57000000    31.92000000
   H     86.79000000    95.59000000    32.22000000
   H     86.65000000    97.73000000    30.12000000
   H     85.43000000    96.82000000    30.63000000
   H     86.01000000    97.79000000    31.72000000
   N     88.79000000    92.78000000    26.05000000
   C     89.86000000    93.76000000    25.90000000
   C     90.63000000    93.46000000    24.63000000
   O     91.61000000    92.73000000    24.70000000
   C     90.63000000    93.78000000    27.22000000
   C     91.64000000    94.91000000    27.14000000
   O     92.47000000    94.93000000    28.08000000
   O     91.81000000    95.77000000    26.25000000
   H     89.04000000    91.90000000    25.63000000
   H     89.42000000    94.75000000    25.78000000
   H     91.09000000    92.79000000    27.33000000
   H     90.10000000    93.99000000    28.15000000
   N     90.24000000    93.92000000    23.43000000
   C     88.99000000    94.56000000    23.10000000
   C     88.60000000    94.43000000    21.63000000
   O     89.44000000    94.26000000    20.75000000
   H     90.81000000    93.72000000    22.62000000
   H     89.07000000    95.62000000    23.33000000
   H     88.19000000    94.23000000    23.76000000
   N     87.32000000    94.48000000    21.26000000
   C     86.02000000    94.53000000    21.90000000
   C     85.13000000    95.72000000    21.58000000
   O     85.01000000    96.08000000    20.41000000
   C     85.27000000    93.21000000    21.77000000
   C     86.09000000    91.94000000    21.97000000
   O     86.26000000    91.66000000    23.18000000
   O     86.67000000    91.35000000    21.04000000
   H     87.17000000    94.36000000    20.27000000
   H     86.27000000    94.60000000    22.96000000
   H     84.77000000    93.23000000    20.79000000
   H     84.39000000    93.18000000    22.41000000
   N     84.43000000    96.31000000    22.55000000
   C     83.35000000    97.26000000    22.36000000
   C     81.93000000    96.71000000    22.32000000
   O     81.04000000    97.36000000    22.86000000
   H     84.49000000    95.94000000    23.49000000
   H     83.57000000    97.86000000    21.48000000
   H     83.38000000    98.00000000    23.16000000
   N     81.76000000    95.53000000    21.73000000
   C     80.51000000    94.87000000    21.42000000
   C     80.57000000    93.43000000    21.90000000
   O     81.64000000    92.95000000    22.28000000
   C     80.18000000    94.90000000    19.93000000
   C     81.23000000    94.28000000    19.01000000
   O     79.94000000    96.22000000    19.48000000
   H     82.62000000    95.07000000    21.45000000
   H     79.77000000    95.46000000    21.95000000
   H     79.30000000    94.29000000    19.76000000
   H     80.72000000    96.78000000    19.43000000
   H     81.44000000    93.25000000    19.33000000
   H     80.90000000    94.27000000    17.97000000
   H     82.24000000    94.69000000    19.10000000
   N     79.44000000    92.71000000    21.88000000
   C     79.32000000    91.44000000    22.56000000
   C     78.28000000    90.52000000    21.93000000
   O     77.18000000    90.88000000    21.53000000
   C     79.01000000    91.63000000    24.04000000
   C     78.97000000    90.35000000    24.87000000
   C     77.72000000    92.44000000    24.21000000
   C     80.29000000    90.04000000    25.56000000
   H     78.57000000    93.12000000    21.60000000
   H     80.30000000    90.96000000    22.50000000
   H     79.76000000    92.34000000    24.39000000
   H     78.76000000    89.49000000    24.23000000
   H     78.16000000    90.34000000    25.60000000
   H     77.55000000    92.71000000    25.25000000
   H     77.79000000    93.38000000    23.66000000
   H     76.85000000    91.88000000    23.88000000
   H     80.15000000    89.17000000    26.21000000
   H     81.05000000    89.74000000    24.83000000
   H     80.58000000    90.91000000    26.15000000
   N     78.74000000    89.29000000    21.69000000
   C     78.07000000    88.16000000    21.07000000
   C     78.14000000    86.91000000    21.93000000
   O     77.48000000    85.96000000    21.50000000
   C     78.59000000    87.96000000    19.65000000
   C     79.93000000    87.27000000    19.44000000
   O     78.62000000    89.15000000    18.89000000
   H     79.69000000    89.11000000    21.97000000
   H     77.05000000    88.51000000    20.90000000
   H     77.84000000    87.44000000    19.05000000
   H     77.70000000    89.40000000    18.76000000
   H     80.34000000    87.42000000    18.44000000
   H     80.72000000    87.65000000    20.09000000
   H     79.75000000    86.21000000    19.66000000
   N     78.96000000    86.88000000    22.98000000
   C     79.21000000    85.71000000    23.81000000
   C     80.04000000    84.65000000    23.11000000
   O     80.41000000    84.92000000    21.96000000
   C     77.97000000    85.22000000    24.55000000
   C     77.25000000    86.37000000    25.26000000
   O     78.33000000    84.15000000    25.40000000
   H     79.57000000    87.67000000    23.15000000
   H     79.82000000    86.07000000    24.64000000
   H     77.32000000    84.84000000    23.76000000
   H     77.89000000    84.38000000    26.22000000
   H     76.72000000    86.90000000    24.47000000
   H     76.46000000    86.11000000    25.97000000
   H     77.93000000    87.04000000    25.78000000
   N     80.40000000    83.52000000    23.72000000
   C     81.02000000    82.31000000    23.23000000
   C     82.54000000    82.23000000    23.22000000
   O     83.11000000    81.62000000    22.32000000
   C     80.50000000    81.02000000    23.86000000
   C     79.68000000    80.16000000    22.89000000
   C     78.49000000    80.86000000    22.24000000
   C     77.52000000    79.80000000    21.74000000
   N     76.34000000    80.49000000    21.17000000
   H     79.86000000    83.47000000    24.57000000
   H     80.85000000    82.28000000    22.15000000
   H     79.91000000    81.22000000    24.75000000
   H     81.30000000    80.38000000    24.24000000
   H     79.42000000    79.23000000    23.39000000
   H     80.35000000    79.82000000    22.10000000
   H     78.84000000    81.48000000    21.42000000
   H     77.96000000    81.51000000    22.94000000
   H     77.22000000    79.14000000    22.55000000
   H     77.94000000    79.24000000    20.90000000
   H     76.56000000    81.14000000    20.43000000
   H     75.62000000    79.84000000    20.89000000
   H     75.86000000    81.04000000    21.86000000
   N     83.31000000    82.77000000    24.18000000
   C     83.06000000    83.68000000    25.28000000
   C     81.85000000    83.44000000    26.17000000
   O     81.18000000    84.37000000    26.62000000
   C     83.21000000    85.13000000    24.83000000
   C     83.90000000    85.93000000    25.93000000
   C     84.17000000    87.40000000    25.63000000
   O     83.36000000    88.13000000    25.01000000
   O     85.22000000    87.87000000    26.12000000
   H     84.29000000    82.52000000    24.17000000
   H     83.81000000    83.41000000    26.01000000
   H     82.25000000    85.46000000    24.43000000
   H     83.88000000    85.02000000    23.97000000
   H     84.82000000    85.40000000    26.17000000
   H     83.22000000    85.89000000    26.77000000
   N     81.56000000    82.19000000    26.52000000
   C     80.55000000    81.80000000    27.49000000
   H     79.62700000    81.54500000    26.97000000
   H     80.90100000    80.93500000    28.05300000
   H     80.36400000    82.62800000    28.17400000
   H     82.12000000    81.44000000    26.14000000
  Ca     85.15000000    90.21000000    24.91000000
   O     83.10000000    90.54000000    23.03000000
   H     82.52000000    89.97000000    22.53000000
   H     82.80000000    91.42000000    22.84000000
   O     87.92000000    89.42000000    24.91000000
   H     88.41000000    89.20000000    24.12000000
   H     88.59000000    89.55000000    25.59000000
   O     84.01000000    90.60000000    27.62000000
   H     84.32000000    91.26000000    28.24000000
   H     84.21000000    89.76000000    28.05000000
   O     83.77000000    92.53000000    25.30000000
   H     83.56000000    93.21000000    24.66000000
   H     83.30000000    92.80000000    26.09000000
   O     85.73000000    88.33000000    23.11000000
   H     85.81000000    88.49000000    22.17000000
   H     86.11000000    87.46000000    23.24000000

Ca 1.00



