%chk=loop4.apoCaM-CA-Ng.Init295.run62.water3.chk
%nprocshared=20
%mem=10GB
%nosave
#b3lyp/svp scf=(tight,noincore,xqc) Test 
#IOP(5/87=12) Density=Current Pop=(MK,readradii) iop(6/33=2) iop(6/42=6)

loop4.apoCaM-CA-Ng.Init295.run62.water3 

   -3  1 
   C     90.07000000    60.51000000    22.59000000
   C     90.91000000    59.28000000    22.24000000
   O     91.79000000    59.04000000    23.07000000
   H     89.11300000    60.19000000    23.00300000
   H     90.59900000    61.11500000    23.32600000
   H     89.89700000    61.10100000    21.69000000
   N     90.75000000    58.64000000    21.09000000
   C     91.71000000    57.67000000    20.61000000
   C     91.92000000    56.37000000    21.37000000
   O     92.73000000    55.54000000    20.97000000
   C     93.05000000    58.37000000    20.38000000
   C     93.02000000    59.78000000    19.80000000
   O     93.72000000    60.65000000    20.36000000
   O     92.17000000    60.10000000    18.95000000
   H     89.92000000    58.69000000    20.51000000
   H     91.46000000    57.30000000    19.62000000
   H     93.82000000    57.85000000    19.81000000
   H     93.58000000    58.58000000    21.31000000
   N     91.24000000    56.20000000    22.51000000
   C     91.17000000    55.07000000    23.41000000
   C     90.78000000    53.84000000    22.60000000
   O     90.20000000    54.02000000    21.53000000
   C     90.01000000    55.39000000    24.35000000
   C     90.06000000    56.68000000    25.16000000
   C     89.69000000    54.20000000    25.25000000
   C     88.91000000    56.93000000    26.13000000
   H     90.63000000    56.91000000    22.89000000
   H     92.08000000    54.97000000    24.00000000
   H     89.08000000    55.45000000    23.78000000
   H     90.04000000    57.50000000    24.45000000
   H     91.01000000    56.79000000    25.68000000
   H     88.96000000    54.40000000    26.04000000
   H     89.25000000    53.34000000    24.75000000
   H     90.62000000    53.84000000    25.68000000
   H     88.96000000    57.96000000    26.51000000
   H     88.00000000    56.72000000    25.57000000
   H     88.88000000    56.19000000    26.93000000
   N     91.17000000    52.63000000    23.02000000
   C     92.36000000    52.39000000    23.81000000
   C     93.62000000    52.79000000    23.06000000
   O     94.28000000    53.70000000    23.55000000
   C     92.33000000    50.94000000    24.27000000
   C     91.28000000    50.70000000    25.35000000
   O     91.53000000    50.88000000    26.56000000
   O     90.19000000    50.20000000    25.00000000
   H     90.67000000    51.89000000    22.55000000
   H     92.19000000    52.88000000    24.77000000
   H     93.30000000    50.72000000    24.72000000
   H     92.23000000    50.38000000    23.34000000
   N     93.88000000    52.22000000    21.88000000
   C     94.90000000    52.61000000    20.93000000
   C     96.33000000    52.71000000    21.43000000
   O     96.69000000    51.82000000    22.20000000
   H     93.29000000    51.42000000    21.68000000
   H     94.49000000    53.57000000    20.60000000
   H     94.89000000    51.88000000    20.12000000
   N     97.24000000    53.56000000    20.93000000
   C     98.63000000    53.72000000    21.30000000
   C     98.85000000    54.28000000    22.70000000
   O     99.91000000    54.06000000    23.27000000
   C     99.38000000    54.52000000    20.25000000
   C     98.77000000    55.87000000    19.90000000
   O     98.82000000    56.73000000    20.81000000
   O     98.58000000    56.19000000    18.71000000
   H     96.93000000    54.00000000    20.08000000
   H     99.02000000    52.70000000    21.37000000
   H     99.42000000    53.97000000    19.31000000
   H    100.41000000    54.75000000    20.52000000
   N     97.93000000    55.07000000    23.26000000
   C     97.98000000    55.66000000    24.58000000
   C     98.97000000    56.81000000    24.70000000
   O     99.21000000    57.27000000    25.81000000
   H     97.03000000    55.04000000    22.81000000
   H     98.30000000    54.85000000    25.24000000
   H     96.96000000    55.95000000    24.85000000
   N     99.64000000    57.25000000    23.63000000
   C    100.61000000    58.33000000    23.58000000
   C    100.30000000    59.50000000    24.50000000
   O    101.24000000    60.10000000    25.02000000
   C    102.03000000    57.76000000    23.55000000
   C    102.52000000    57.14000000    24.86000000
   C    104.00000000    56.79000000    24.79000000
   N    104.40000000    55.52000000    24.75000000
   O    104.90000000    57.63000000    24.86000000
   H     99.34000000    56.93000000    22.72000000
   H    100.56000000    58.84000000    22.62000000
   H    102.69000000    58.51000000    23.11000000
   H    102.05000000    56.94000000    22.85000000
   H    102.05000000    56.20000000    25.15000000
   H    102.28000000    57.76000000    25.72000000
   H    103.77000000    54.85000000    24.32000000
   H    105.39000000    55.36000000    24.83000000
   N     99.06000000    59.99000000    24.50000000
   C     98.72000000    61.30000000    25.02000000
   C     99.06000000    62.42000000    24.05000000
   O     99.33000000    62.23000000    22.87000000
   C     97.25000000    61.42000000    25.40000000
   C     96.27000000    61.45000000    24.23000000
   C     96.84000000    60.28000000    26.34000000
   H     98.33000000    59.43000000    24.08000000
   H     99.29000000    61.42000000    25.94000000
   H     97.20000000    62.35000000    25.97000000
   H     96.45000000    62.31000000    23.58000000
   H     96.18000000    60.47000000    23.77000000
   H     95.25000000    61.54000000    24.60000000
   H     96.72000000    59.37000000    25.76000000
   H     97.72000000    60.17000000    26.97000000
   H     95.97000000    60.60000000    26.91000000
   N     99.27000000    63.62000000    24.59000000
   C     99.35000000    64.74000000    23.67000000
   C     98.38000000    65.84000000    24.08000000
   O     97.76000000    65.75000000    25.14000000
   C    100.79000000    65.25000000    23.70000000
   C    101.15000000    66.19000000    22.56000000
   N    102.08000000    67.12000000    22.76000000
   O    100.63000000    66.07000000    21.45000000
   H     98.99000000    63.86000000    25.53000000
   H     99.13000000    64.54000000    22.62000000
   H    101.49000000    64.42000000    23.56000000
   H    101.15000000    65.68000000    24.63000000
   H    102.44000000    67.29000000    23.68000000
   H    102.25000000    67.68000000    21.93000000
   N     98.20000000    66.90000000    23.29000000
   C     97.38000000    68.03000000    23.68000000
   C     96.70000000    68.73000000    22.52000000
   O     96.85000000    69.93000000    22.33000000
   C     98.17000000    68.86000000    24.69000000
   C     97.43000000    69.26000000    25.94000000
   C     98.04000000    69.14000000    27.19000000
   C     96.23000000    69.98000000    25.87000000
   C     97.45000000    69.72000000    28.32000000
   C     95.64000000    70.58000000    27.00000000
   C     96.19000000    70.35000000    28.27000000
   O     95.70000000    70.87000000    29.44000000
   H     98.71000000    66.97000000    22.42000000
   H     96.53000000    67.59000000    24.22000000
   H     98.32000000    69.82000000    24.19000000
   H     99.01000000    68.30000000    25.09000000
   H     98.99000000    68.62000000    27.29000000
   H     95.75000000    70.15000000    24.92000000
   H     97.95000000    69.72000000    29.28000000
   H     94.71000000    71.11000000    26.85000000
   H     95.07000000    71.55000000    29.22000000
   N     96.01000000    67.95000000    21.68000000
   C     95.47000000    68.39000000    20.40000000
   C     94.14000000    69.11000000    20.52000000
   O     94.01000000    70.23000000    20.01000000
   C     95.48000000    67.35000000    19.29000000
   C     96.86000000    66.92000000    18.79000000
   C     96.67000000    66.28000000    17.43000000
   O     96.68000000    65.04000000    17.22000000
   O     96.68000000    67.02000000    16.42000000
   H     95.92000000    66.95000000    21.77000000
   H     96.08000000    69.16000000    19.93000000
   H     94.99000000    67.90000000    18.49000000
   H     94.86000000    66.49000000    19.52000000
   H     97.36000000    66.36000000    19.58000000
   H     97.54000000    67.76000000    18.62000000
   N     93.08000000    68.68000000    21.21000000
   C     92.88000000    67.51000000    22.05000000
   C     93.11000000    67.71000000    23.54000000
   O     92.96000000    68.84000000    24.00000000
   C     91.49000000    66.95000000    21.78000000
   C     91.23000000    66.43000000    20.37000000
   C     92.11000000    65.30000000    19.86000000
   O     92.42000000    65.27000000    18.65000000
   O     92.60000000    64.45000000    20.64000000
   H     92.27000000    69.23000000    20.98000000
   H     93.64000000    66.82000000    21.68000000
   H     90.75000000    67.68000000    22.11000000
   H     91.23000000    66.14000000    22.47000000
   H     91.28000000    67.30000000    19.71000000
   H     90.21000000    66.06000000    20.31000000
   N     93.37000000    66.61000000    24.25000000
   C     93.30000000    66.23000000    25.64000000
   H     92.28900000    66.39600000    26.01100000
   H     93.55500000    65.17500000    25.74200000
   H     94.00100000    66.83200000    26.21800000
   H     93.49000000    65.78000000    23.68000000
  Ca     92.68000000    62.60000000    18.84000000
   O     95.43000000    62.94000000    19.34000000
   H     96.15000000    62.89000000    18.71000000
   H     95.85000000    63.10000000    20.18000000
   O     94.09000000    64.12000000    17.06000000
   H     94.98000000    64.40000000    17.25000000
   H     93.54000000    64.86000000    17.32000000
   O     94.37000000    60.83000000    17.10000000
   H     94.63000000    59.94000000    16.87000000
   H     94.63000000    61.37000000    16.36000000

Ca 1.00



