%chk=loop4.apoCaM-CA-Ng.Init293.run75.water3.chk
%nprocshared=20
%mem=10GB
%nosave
#b3lyp/svp scf=(tight,noincore,xqc) Test 
#IOP(5/87=12) Density=Current Pop=(MK,readradii) iop(6/33=2) iop(6/42=6)

loop4.apoCaM-CA-Ng.Init293.run75.water3 

   -3  1 
   C     60.44000000    79.79000000    67.78000000
   C     59.42000000    79.54000000    68.89000000
   O     58.44000000    80.26000000    69.04000000
   H     61.38000000    79.30000000    68.03400000
   H     60.06200000    79.38600000    66.84100000
   H     60.60700000    80.86200000    67.67400000
   N     59.63000000    78.48000000    69.67000000
   C     58.83000000    77.95000000    70.75000000
   C     57.32000000    77.78000000    70.61000000
   O     56.72000000    76.95000000    71.29000000
   C     59.14000000    78.73000000    72.03000000
   C     59.13000000    80.25000000    72.04000000
   O     58.09000000    80.90000000    71.82000000
   O     60.16000000    80.87000000    72.41000000
   H     60.50000000    77.99000000    69.51000000
   H     59.15000000    76.92000000    70.90000000
   H     60.17000000    78.45000000    72.25000000
   H     58.50000000    78.34000000    72.82000000
   N     56.64000000    78.48000000    69.70000000
   C     55.19000000    78.47000000    69.56000000
   C     54.64000000    79.75000000    70.18000000
   O     55.29000000    80.78000000    70.06000000
   C     54.70000000    78.19000000    68.14000000
   C     55.14000000    76.80000000    67.71000000
   C     55.33000000    79.18000000    67.16000000
   C     54.74000000    76.45000000    66.27000000
   H     57.17000000    79.11000000    69.12000000
   H     54.81000000    77.67000000    70.20000000
   H     53.63000000    78.36000000    68.09000000
   H     54.68000000    76.17000000    68.47000000
   H     56.22000000    76.70000000    67.80000000
   H     56.32000000    78.90000000    66.80000000
   H     54.66000000    79.22000000    66.30000000
   H     55.38000000    80.15000000    67.65000000
   H     53.66000000    76.40000000    66.15000000
   H     55.11000000    77.22000000    65.60000000
   H     55.12000000    75.49000000    65.93000000
   N     53.41000000    79.71000000    70.71000000
   C     52.75000000    80.92000000    71.15000000
   C     53.25000000    81.49000000    72.47000000
   O     53.89000000    80.78000000    73.26000000
   C     51.25000000    80.68000000    71.29000000
   C     50.70000000    79.42000000    71.92000000
   O     49.92000000    79.54000000    72.90000000
   O     51.04000000    78.35000000    71.38000000
   H     52.92000000    78.83000000    70.78000000
   H     52.90000000    81.67000000    70.38000000
   H     50.94000000    80.59000000    70.25000000
   H     50.77000000    81.57000000    71.70000000
   N     52.97000000    82.74000000    72.83000000
   C     52.60000000    83.87000000    72.01000000
   C     53.62000000    84.32000000    70.98000000
   O     54.72000000    83.77000000    70.91000000
   H     53.07000000    82.99000000    73.81000000
   H     52.48000000    84.70000000    72.70000000
   H     51.59000000    83.73000000    71.61000000
   N     53.31000000    85.37000000    70.21000000
   C     52.08000000    86.13000000    70.23000000
   C     51.55000000    86.41000000    68.83000000
   O     51.78000000    87.50000000    68.31000000
   C     52.27000000    87.44000000    70.99000000
   C     50.97000000    88.17000000    71.28000000
   O     49.94000000    87.59000000    70.89000000
   O     51.04000000    89.27000000    71.88000000
   H     53.96000000    85.55000000    69.46000000
   H     51.30000000    85.49000000    70.65000000
   H     52.99000000    87.99000000    70.39000000
   H     52.71000000    87.12000000    71.94000000
   N     50.85000000    85.44000000    68.24000000
   C     50.48000000    84.16000000    68.80000000
   C     49.63000000    83.26000000    67.90000000
   O     48.76000000    82.57000000    68.42000000
   H     50.30000000    85.64000000    67.41000000
   H     49.97000000    84.33000000    69.75000000
   H     51.40000000    83.59000000    68.95000000
   N     49.80000000    83.50000000    66.60000000
   C     48.94000000    83.01000000    65.54000000
   C     49.62000000    82.00000000    64.62000000
   O     48.87000000    81.37000000    63.88000000
   C     48.50000000    84.21000000    64.71000000
   C     47.06000000    84.59000000    65.01000000
   C     46.83000000    86.07000000    64.71000000
   N     46.65000000    86.49000000    63.46000000
   O     46.76000000    86.95000000    65.57000000
   H     50.62000000    84.06000000    66.44000000
   H     48.06000000    82.55000000    65.99000000
   H     48.62000000    84.09000000    63.63000000
   H     49.03000000    85.09000000    65.07000000
   H     46.90000000    84.33000000    66.06000000
   H     46.43000000    83.93000000    64.42000000
   H     46.65000000    85.81000000    62.71000000
   H     46.25000000    87.40000000    63.30000000
   N     50.95000000    81.95000000    64.58000000
   C     51.77000000    81.21000000    63.64000000
   C     53.08000000    81.94000000    63.40000000
   O     53.59000000    82.63000000    64.28000000
   C     52.02000000    79.81000000    64.19000000
   C     51.07000000    78.76000000    63.63000000
   C     52.02000000    79.61000000    65.71000000
   H     51.43000000    82.74000000    65.00000000
   H     51.23000000    81.09000000    62.70000000
   H     53.02000000    79.55000000    63.84000000
   H     51.10000000    78.81000000    62.54000000
   H     51.49000000    77.81000000    63.96000000
   H     50.07000000    78.72000000    64.04000000
   H     52.67000000    80.35000000    66.18000000
   H     51.07000000    79.64000000    66.24000000
   H     52.55000000    78.67000000    65.81000000
   N     53.59000000    81.80000000    62.17000000
   C     54.88000000    82.28000000    61.73000000
   C     55.12000000    83.78000000    61.69000000
   O     56.22000000    84.32000000    61.66000000
   C     55.19000000    81.54000000    60.43000000
   C     56.57000000    81.78000000    59.84000000
   N     56.66000000    82.47000000    58.70000000
   O     57.58000000    81.27000000    60.32000000
   H     53.02000000    81.29000000    61.52000000
   H     55.56000000    81.88000000    62.49000000
   H     54.41000000    81.99000000    59.81000000
   H     55.12000000    80.47000000    60.59000000
   H     55.81000000    82.73000000    58.22000000
   H     57.49000000    82.76000000    58.20000000
   N     54.03000000    84.55000000    61.66000000
   C     53.95000000    86.00000000    61.73000000
   C     54.42000000    86.50000000    63.09000000
   O     54.08000000    85.96000000    64.14000000
   C     52.54000000    86.46000000    61.41000000
   C     52.34000000    87.95000000    61.43000000
   C     53.22000000    88.85000000    60.81000000
   C     51.25000000    88.49000000    62.13000000
   C     53.06000000    90.24000000    60.77000000
   C     51.17000000    89.89000000    62.21000000
   C     52.00000000    90.79000000    61.53000000
   O     51.67000000    92.11000000    61.48000000
   H     53.16000000    84.04000000    61.61000000
   H     54.66000000    86.38000000    60.99000000
   H     51.87000000    85.99000000    62.14000000
   H     52.26000000    86.02000000    60.45000000
   H     54.11000000    88.48000000    60.33000000
   H     50.49000000    87.85000000    62.55000000
   H     53.80000000    90.85000000    60.27000000
   H     50.24000000    90.31000000    62.58000000
   H     52.31000000    92.62000000    60.99000000
   N     55.28000000    87.52000000    63.12000000
   C     55.99000000    87.99000000    64.29000000
   C     56.95000000    87.00000000    64.93000000
   O     57.86000000    87.42000000    65.63000000
   C     55.11000000    88.63000000    65.37000000
   C     54.12000000    89.69000000    64.89000000
   C     54.92000000    90.86000000    64.35000000
   O     55.30000000    91.74000000    65.16000000
   O     55.21000000    90.95000000    63.13000000
   H     55.58000000    87.88000000    62.23000000
   H     56.63000000    88.77000000    63.87000000
   H     55.73000000    89.02000000    66.17000000
   H     54.50000000    87.87000000    65.86000000
   H     53.59000000    90.10000000    65.74000000
   H     53.48000000    89.23000000    64.13000000
   N     56.85000000    85.70000000    64.63000000
   C     57.97000000    84.83000000    64.91000000
   C     59.18000000    85.10000000    64.04000000
   O     60.27000000    84.96000000    64.59000000
   C     57.66000000    83.33000000    64.89000000
   C     56.45000000    82.80000000    65.67000000
   C     56.64000000    82.93000000    67.17000000
   O     55.64000000    82.92000000    67.92000000
   O     57.80000000    83.12000000    67.60000000
   H     55.94000000    85.38000000    64.31000000
   H     58.26000000    85.03000000    65.94000000
   H     58.53000000    82.72000000    65.13000000
   H     57.52000000    82.98000000    63.87000000
   H     56.30000000    81.74000000    65.46000000
   H     55.65000000    83.49000000    65.39000000
   N     58.95000000    85.58000000    62.81000000
   C     60.06000000    86.10000000    62.03000000
   H     60.93900000    85.47400000    62.18800000
   H     59.79600000    86.09500000    60.97300000
   H     60.28000000    87.12000000    62.34500000
   H     58.00000000    85.83000000    62.61000000
  Ca     57.12000000    82.64000000    70.26000000
   O     59.62000000    83.17000000    70.72000000
   H     60.41000000    83.67000000    70.49000000
   H     59.93000000    82.52000000    71.35000000
   O     57.40000000    85.16000000    70.05000000
   H     57.73000000    85.61000000    69.27000000
   H     56.93000000    85.83000000    70.54000000
   O     57.17000000    83.38000000    73.12000000
   H     57.98000000    83.62000000    73.57000000
   H     56.65000000    82.94000000    73.80000000

Ca 1.00



