%chk=loop2.apoCaM-CA-Ng.Init31.run74.water6.chk
%nprocshared=20
%mem=10GB
%nosave
#b3lyp/svp scf=(tight,noincore,xqc) Test 
#IOP(5/87=12) Density=Current Pop=(MK,readradii) iop(6/33=2) iop(6/42=6)

loop2.apoCaM-CA-Ng.Init31.run74.water6 

   -2  1 
   C     84.44000000    49.87000000     9.04000000
   C     83.40000000    50.26000000     8.00000000
   O     82.87000000    51.37000000     7.99000000
   H     85.30100000    50.53300000     8.95800000
   H     84.00800000    49.95700000    10.03700000
   H     84.75700000    48.84100000     8.86900000
   N     83.00000000    49.45000000     7.02000000
   C     82.98000000    48.00000000     6.98000000
   C     82.06000000    47.39000000     8.03000000
   O     81.15000000    47.93000000     8.65000000
   C     82.49000000    47.44000000     5.65000000
   C     83.10000000    48.11000000     4.42000000
   O     84.16000000    47.59000000     4.01000000
   O     82.46000000    49.01000000     3.84000000
   H     82.31000000    49.96000000     6.49000000
   H     83.98000000    47.58000000     7.10000000
   H     81.42000000    47.66000000     5.63000000
   H     82.67000000    46.37000000     5.60000000
   N     82.47000000    46.14000000     8.25000000
   C     82.01000000    45.24000000     9.29000000
   C     80.50000000    45.06000000     9.35000000
   O     79.80000000    45.60000000    10.20000000
   C     82.67000000    45.60000000    10.62000000
   H     83.12000000    45.79000000     7.57000000
   H     82.42000000    44.28000000     8.96000000
   H     82.18000000    44.98000000    11.37000000
   H     83.71000000    45.31000000    10.57000000
   H     82.68000000    46.65000000    10.91000000
   N     79.94000000    44.39000000     8.34000000
   C     78.59000000    44.52000000     7.85000000
   C     77.87000000    43.22000000     7.50000000
   O     78.46000000    42.17000000     7.28000000
   C     78.62000000    45.42000000     6.62000000
   C     79.47000000    45.05000000     5.41000000
   O     79.16000000    45.51000000     4.29000000
   O     80.27000000    44.10000000     5.56000000
   H     80.66000000    43.96000000     7.77000000
   H     78.00000000    44.98000000     8.65000000
   H     79.04000000    46.34000000     7.04000000
   H     77.62000000    45.75000000     6.33000000
   N     76.54000000    43.26000000     7.38000000
   C     75.76000000    42.20000000     6.79000000
   C     74.95000000    41.31000000     7.72000000
   O     74.83000000    41.54000000     8.92000000
   H     76.09000000    44.14000000     7.59000000
   H     76.39000000    41.52000000     6.21000000
   H     74.98000000    42.56000000     6.11000000
   N     74.54000000    40.15000000     7.18000000
   C     73.81000000    39.14000000     7.92000000
   C     74.45000000    38.52000000     9.15000000
   O     73.77000000    38.14000000    10.10000000
   C     73.47000000    38.06000000     6.89000000
   C     72.95000000    36.79000000     7.55000000
   N     71.80000000    36.87000000     8.24000000
   O     73.56000000    35.73000000     7.42000000
   H     74.71000000    40.02000000     6.20000000
   H     72.88000000    39.51000000     8.35000000
   H     74.41000000    37.80000000     6.40000000
   H     72.68000000    38.47000000     6.26000000
   H     71.46000000    37.79000000     8.46000000
   H     71.44000000    36.03000000     8.67000000
   N     75.77000000    38.34000000     9.20000000
   C     76.55000000    37.80000000    10.30000000
   C     76.37000000    36.30000000    10.39000000
   O     76.62000000    35.65000000     9.37000000
   H     76.22000000    38.93000000     8.53000000
   H     76.10000000    38.31000000    11.15000000
   H     77.63000000    37.96000000    10.33000000
   N     75.90000000    35.72000000    11.50000000
   C     75.35000000    36.46000000    12.62000000
   C     76.45000000    37.12000000    13.44000000
   O     76.19000000    38.13000000    14.09000000
   C     74.62000000    35.49000000    13.55000000
   C     73.47000000    34.79000000    12.84000000
   O     75.52000000    34.50000000    13.99000000
   H     76.12000000    34.74000000    11.57000000
   H     74.64000000    37.24000000    12.35000000
   H     74.25000000    36.02000000    14.43000000
   H     74.99000000    33.87000000    14.49000000
   H     73.83000000    34.00000000    12.18000000
   H     72.80000000    34.50000000    13.65000000
   H     72.89000000    35.49000000    12.24000000
   N     77.70000000    36.65000000    13.43000000
   C     78.79000000    37.03000000    14.30000000
   C     78.42000000    36.88000000    15.77000000
   O     77.82000000    37.72000000    16.45000000
   C     79.41000000    38.39000000    13.97000000
   C     79.44000000    38.88000000    12.53000000
   C     80.74000000    38.57000000    14.70000000
   C     80.32000000    38.10000000    11.56000000
   H     77.90000000    35.84000000    12.86000000
   H     79.66000000    36.42000000    14.04000000
   H     78.75000000    39.12000000    14.44000000
   H     79.67000000    39.95000000    12.49000000
   H     78.44000000    38.89000000    12.10000000
   H     81.55000000    38.11000000    14.13000000
   H     81.03000000    39.61000000    14.80000000
   H     80.81000000    38.14000000    15.70000000
   H     80.02000000    37.08000000    11.32000000
   H     80.33000000    38.66000000    10.62000000
   H     81.35000000    38.16000000    11.90000000
   N     78.70000000    35.72000000    16.36000000
   C     79.38000000    34.50000000    15.97000000
   C     80.86000000    34.58000000    16.32000000
   O     81.60000000    33.68000000    15.94000000
   C     78.71000000    33.29000000    16.61000000
   C     78.48000000    33.34000000    18.11000000
   O     79.09000000    34.16000000    18.83000000
   O     77.68000000    32.49000000    18.57000000
   H     78.25000000    35.68000000    17.27000000
   H     79.30000000    34.34000000    14.90000000
   H     79.28000000    32.39000000    16.38000000
   H     77.72000000    33.12000000    16.17000000
   N     81.36000000    35.46000000    17.19000000
   C     82.75000000    35.80000000    17.42000000
   C     83.49000000    34.67000000    18.12000000
   O     82.89000000    34.00000000    18.96000000
   C     82.84000000    37.14000000    18.14000000
   C     82.28000000    37.22000000    19.54000000
   C     81.00000000    37.74000000    19.73000000
   C     83.06000000    36.92000000    20.67000000
   C     80.45000000    38.18000000    20.94000000
   C     82.52000000    37.34000000    21.89000000
   C     81.26000000    37.93000000    22.05000000
   H     80.69000000    36.02000000    17.69000000
   H     83.18000000    36.00000000    16.44000000
   H     82.25000000    37.83000000    17.54000000
   H     83.89000000    37.42000000    18.20000000
   H     80.45000000    37.90000000    18.81000000
   H     84.03000000    36.46000000    20.53000000
   H     79.43000000    38.54000000    21.06000000
   H     83.05000000    37.22000000    22.83000000
   H     80.98000000    38.22000000    23.05000000
   N     84.76000000    34.36000000    17.84000000
   C     85.74000000    35.22000000    17.22000000
   C     85.60000000    35.29000000    15.71000000
   O     84.78000000    34.56000000    15.16000000
   C     87.10000000    34.66000000    17.62000000
   C     86.83000000    33.17000000    17.86000000
   C     85.43000000    33.24000000    18.47000000
   H     85.63000000    36.17000000    17.73000000
   H     87.91000000    34.77000000    16.90000000
   H     87.32000000    35.09000000    18.59000000
   H     86.78000000    32.68000000    16.89000000
   H     87.54000000    32.72000000    18.54000000
   H     84.85000000    32.32000000    18.40000000
   H     85.46000000    33.53000000    19.52000000
   N     86.31000000    36.20000000    15.03000000
   C     86.16000000    36.49000000    13.62000000
   C     86.48000000    37.96000000    13.36000000
   O     87.07000000    38.34000000    12.35000000
   C     87.08000000    35.50000000    12.91000000
   C     86.55000000    35.29000000    11.50000000
   C     85.20000000    34.58000000    11.39000000
   O     84.29000000    35.07000000    10.70000000
   O     85.11000000    33.51000000    12.05000000
   H     87.11000000    36.62000000    15.47000000
   H     85.13000000    36.30000000    13.33000000
   H     87.09000000    34.54000000    13.44000000
   H     88.09000000    35.90000000    12.91000000
   H     87.26000000    34.62000000    11.01000000
   H     86.55000000    36.23000000    10.95000000
   N     86.22000000    38.99000000    14.17000000
   C     85.57000000    39.13000000    15.46000000
   H     84.56100000    38.72300000    15.40400000
   H     86.13900000    38.58700000    16.21500000
   H     85.52100000    40.18500000    15.73000000
   H     86.63000000    39.84000000    13.82000000
  Ca     80.53000000    41.60000000     5.72000000
   O     80.79000000    40.85000000     8.28000000
   H     81.70000000    40.61000000     8.47000000
   H     80.39000000    40.99000000     9.14000000
   O     81.62000000    42.36000000     3.40000000
   H     82.57000000    42.33000000     3.41000000
   H     81.41000000    43.16000000     2.92000000
   O     78.37000000    41.78000000     3.99000000
   H     78.07000000    42.58000000     3.55000000
   H     78.10000000    41.07000000     3.41000000
   O     79.39000000    39.18000000     5.82000000
   H     78.53000000    38.92000000     5.48000000
   H     79.54000000    38.57000000     6.55000000
   O     82.53000000    39.98000000     5.15000000
   H     82.64000000    39.47000000     5.95000000
   H     83.07000000    39.53000000     4.50000000
   O     82.68000000    42.70000000     6.80000000
   H     83.07000000    42.78000000     7.67000000
   H     83.22000000    43.25000000     6.24000000

Ca 1.00



