%chk=loop3.holoCaM.run1.water2.chk
%nprocshared=20
%mem=10GB
%nosave
#b3lyp/svp scf=(tight,noincore,xqc) Test 
#IOP(5/87=12) Density=Current Pop=(MK,readradii) iop(6/33=2) iop(6/42=6)

loop3.holoCaM.run1.water2 

   0  1 
   C     38.62000000    46.51000000    42.91000000
   C     38.94000000    46.06000000    44.33000000
   O     38.04000000    45.69000000    45.08000000
   H     37.81200000    47.24100000    42.93500000
   H     39.50500000    46.96300000    42.46400000
   H     38.31300000    45.64900000    42.31600000
   N     40.20000000    46.06000000    44.76000000
   C     40.57000000    46.15000000    46.16000000
   C     40.22000000    47.51000000    46.74000000
   O     40.67000000    48.52000000    46.20000000
   C     42.03000000    45.72000000    46.35000000
   C     42.49000000    45.63000000    47.79000000
   O     41.71000000    46.05000000    48.67000000
   O     43.64000000    45.25000000    48.12000000
   H     40.98000000    46.10000000    44.12000000
   H     39.99000000    45.40000000    46.69000000
   H     42.76000000    46.38000000    45.88000000
   H     42.17000000    44.72000000    45.95000000
   N     39.42000000    47.56000000    47.81000000
   C     38.87000000    48.72000000    48.48000000
   C     39.80000000    49.24000000    49.57000000
   O     39.60000000    50.39000000    49.95000000
   C     37.48000000    48.32000000    48.97000000
   C     36.56000000    49.53000000    49.13000000
   C     35.20000000    49.09000000    49.65000000
   C     34.47000000    50.41000000    49.87000000
   N     33.06000000    50.11000000    50.16000000
   H     39.31000000    46.69000000    48.31000000
   H     38.64000000    49.53000000    47.78000000
   H     37.54000000    47.92000000    49.98000000
   H     37.01000000    47.58000000    48.32000000
   H     36.40000000    50.03000000    48.18000000
   H     37.06000000    50.18000000    49.85000000
   H     35.23000000    48.58000000    50.62000000
   H     34.64000000    48.55000000    48.89000000
   H     34.60000000    51.04000000    48.99000000
   H     34.94000000    50.98000000    50.66000000
   H     32.55000000    50.85000000    50.63000000
   H     32.57000000    49.77000000    49.34000000
   H     33.08000000    49.31000000    50.78000000
   N     40.79000000    48.49000000    50.07000000
   C     41.59000000    48.99000000    51.16000000
   C     43.09000000    48.93000000    50.94000000
   O     43.90000000    49.50000000    51.67000000
   C     41.24000000    48.30000000    52.48000000
   C     41.48000000    46.80000000    52.51000000
   O     41.93000000    46.19000000    51.52000000
   O     41.19000000    46.18000000    53.56000000
   H     40.98000000    47.54000000    49.79000000
   H     41.34000000    50.04000000    51.33000000
   H     40.22000000    48.52000000    52.78000000
   H     41.91000000    48.69000000    53.25000000
   N     43.42000000    48.30000000    49.81000000
   C     44.80000000    48.09000000    49.41000000
   C     45.53000000    47.00000000    50.19000000
   O     46.75000000    47.03000000    50.19000000
   H     42.70000000    47.95000000    49.20000000
   H     45.41000000    48.99000000    49.31000000
   H     44.74000000    47.71000000    48.40000000
   N     44.78000000    46.13000000    50.87000000
   C     45.42000000    45.13000000    51.70000000
   C     46.10000000    44.00000000    50.94000000
   O     46.88000000    43.25000000    51.53000000
   C     44.45000000    44.60000000    52.76000000
   C     43.51000000    43.53000000    52.26000000
   N     42.96000000    42.83000000    53.26000000
   O     43.19000000    43.32000000    51.09000000
   H     43.78000000    46.27000000    50.91000000
   H     46.22000000    45.67000000    52.20000000
   H     43.94000000    45.48000000    53.16000000
   H     45.10000000    44.24000000    53.56000000
   H     42.91000000    43.08000000    54.24000000
   H     42.43000000    42.01000000    53.02000000
   N     45.89000000    43.98000000    49.63000000
   C     46.44000000    43.10000000    48.61000000
   C     45.63000000    41.90000000    48.16000000
   O     46.18000000    41.10000000    47.40000000
   H     45.24000000    44.69000000    49.34000000
   H     47.40000000    42.73000000    48.97000000
   H     46.50000000    43.76000000    47.74000000
   N     44.36000000    41.84000000    48.58000000
   C     43.35000000    40.86000000    48.22000000
   C     41.98000000    41.51000000    48.12000000
   O     41.73000000    42.51000000    48.79000000
   C     43.22000000    39.68000000    49.17000000
   C     44.51000000    39.16000000    49.77000000
   C     44.76000000    39.34000000    51.14000000
   C     45.54000000    38.57000000    49.03000000
   C     45.92000000    38.84000000    51.74000000
   C     46.75000000    38.13000000    49.58000000
   C     46.95000000    38.24000000    50.97000000
   O     48.16000000    37.90000000    51.50000000
   H     43.95000000    42.58000000    49.12000000
   H     43.59000000    40.44000000    47.24000000
   H     42.80000000    38.84000000    48.62000000
   H     42.60000000    39.93000000    50.03000000
   H     43.94000000    39.79000000    51.68000000
   H     45.47000000    38.66000000    47.95000000
   H     46.12000000    38.98000000    52.79000000
   H     47.56000000    37.74000000    48.99000000
   H     48.67000000    37.46000000    50.82000000
   N     41.20000000    40.98000000    47.18000000
   C     39.84000000    41.32000000    46.79000000
   C     38.86000000    40.38000000    47.49000000
   O     38.77000000    39.20000000    47.17000000
   C     39.64000000    41.20000000    45.29000000
   C     40.58000000    42.19000000    44.60000000
   C     38.24000000    41.64000000    44.87000000
   C     40.68000000    42.17000000    43.08000000
   H     41.64000000    40.18000000    46.74000000
   H     39.52000000    42.32000000    47.08000000
   H     39.81000000    40.21000000    44.87000000
   H     41.53000000    42.22000000    45.13000000
   H     40.26000000    43.21000000    44.83000000
   H     37.60000000    41.09000000    45.55000000
   H     38.20000000    42.72000000    45.04000000
   H     38.07000000    41.31000000    43.85000000
   H     41.33000000    42.96000000    42.69000000
   H     40.97000000    41.20000000    42.68000000
   H     39.73000000    42.42000000    42.62000000
   N     38.18000000    40.83000000    48.55000000
   C     37.01000000    40.10000000    48.99000000
   C     35.76000000    40.26000000    48.13000000
   O     35.68000000    41.07000000    47.21000000
   C     36.66000000    40.46000000    50.44000000
   O     36.68000000    41.85000000    50.70000000
   H     38.28000000    41.81000000    48.77000000
   H     37.14000000    39.02000000    49.09000000
   H     37.40000000    40.00000000    51.10000000
   H     35.71000000    40.02000000    50.71000000
   H     37.38000000    42.35000000    50.26000000
   N     34.70000000    39.52000000    48.45000000
   C     33.45000000    39.69000000    47.74000000
   C     32.69000000    40.99000000    48.00000000
   O     32.13000000    41.48000000    47.02000000
   C     32.55000000    38.61000000    48.32000000
   H     34.81000000    38.86000000    49.21000000
   H     33.54000000    39.44000000    46.68000000
   H     32.82000000    37.57000000    48.15000000
   H     32.45000000    38.72000000    49.40000000
   H     31.53000000    38.67000000    47.92000000
   N     32.81000000    41.70000000    49.12000000
   C     32.18000000    42.99000000    49.31000000
   C     32.80000000    44.13000000    48.50000000
   O     32.10000000    45.11000000    48.28000000
   C     31.84000000    43.23000000    50.78000000
   H     33.38000000    41.37000000    49.88000000
   H     31.18000000    43.00000000    48.88000000
   H     31.75000000    42.28000000    51.30000000
   H     32.71000000    43.65000000    51.28000000
   H     31.01000000    43.93000000    50.89000000
   N     34.07000000    43.94000000    48.11000000
   C     34.83000000    44.91000000    47.35000000
   C     34.63000000    44.57000000    45.88000000
   O     34.55000000    45.52000000    45.11000000
   C     36.30000000    44.74000000    47.70000000
   C     36.53000000    44.93000000    49.20000000
   C     38.01000000    44.67000000    49.43000000
   O     38.35000000    43.46000000    49.46000000
   O     38.91000000    45.53000000    49.56000000
   H     34.52000000    43.16000000    48.57000000
   H     34.50000000    45.94000000    47.51000000
   H     36.88000000    45.44000000    47.10000000
   H     36.67000000    43.77000000    47.37000000
   H     35.94000000    44.17000000    49.70000000
   H     36.17000000    45.92000000    49.48000000
   N     34.39000000    43.32000000    45.49000000
   C     33.97000000    42.99000000    44.14000000
   H     33.10900000    43.60100000    43.86800000
   H     34.78700000    43.18700000    43.44600000
   H     33.69700000    41.93600000    44.09100000
   H     34.58000000    42.57000000    46.14000000
  Ca     40.82000000    44.26000000    50.41000000
   O     39.29000000    44.49000000    52.75000000
   H     39.96000000    44.97000000    53.22000000
   H     39.10000000    43.74000000    53.31000000
   O     40.41000000    41.94000000    51.70000000
   H     39.93000000    41.87000000    52.53000000
   H     40.39000000    41.06000000    51.33000000

Ca 1.00



