%chk=loop4.holoCaM.run95.water2.chk
%nprocshared=20
%mem=10GB
%nosave
#b3lyp/svp scf=(tight,noincore,xqc) Test 
#IOP(5/87=12) Density=Current Pop=(MK,readradii) iop(6/33=2) iop(6/42=6)

loop4.holoCaM.run95.water2 

   -3  1 
   C     53.87000000    45.82000000     2.85000000
   C     54.30000000    47.19000000     3.34000000
   O     53.48000000    48.11000000     3.28000000
   H     52.94400000    45.91200000     2.28300000
   H     54.64700000    45.40200000     2.21000000
   H     53.70900000    45.16200000     3.70400000
   N     55.54000000    47.31000000     3.82000000
   C     56.24000000    48.48000000     4.32000000
   C     56.43000000    49.47000000     3.18000000
   O     56.81000000    49.02000000     2.10000000
   C     57.52000000    48.17000000     5.07000000
   C     58.24000000    49.30000000     5.79000000
   O     59.38000000    49.05000000     6.21000000
   O     57.86000000    50.49000000     5.94000000
   H     56.02000000    46.42000000     3.88000000
   H     55.47000000    48.91000000     4.97000000
   H     58.22000000    47.57000000     4.48000000
   H     57.26000000    47.47000000     5.87000000
   N     56.13000000    50.76000000     3.36000000
   C     56.24000000    51.80000000     2.35000000
   C     57.56000000    52.55000000     2.48000000
   O     58.17000000    52.88000000     1.47000000
   C     54.92000000    52.55000000     2.21000000
   C     54.02000000    51.64000000     1.38000000
   C     55.18000000    53.90000000     1.56000000
   C     52.57000000    52.10000000     1.51000000
   H     55.82000000    51.03000000     4.29000000
   H     56.36000000    51.31000000     1.38000000
   H     54.49000000    52.66000000     3.21000000
   H     54.07000000    50.67000000     1.89000000
   H     54.25000000    51.57000000     0.32000000
   H     55.46000000    53.69000000     0.53000000
   H     54.25000000    54.47000000     1.60000000
   H     55.92000000    54.46000000     2.13000000
   H     51.89000000    51.68000000     0.77000000
   H     52.04000000    51.75000000     2.40000000
   H     52.59000000    53.19000000     1.41000000
   N     58.03000000    52.80000000     3.70000000
   C     59.12000000    53.72000000     3.96000000
   C     60.47000000    53.03000000     3.97000000
   O     61.51000000    53.64000000     3.72000000
   C     58.96000000    54.37000000     5.33000000
   C     57.51000000    54.71000000     5.65000000
   O     56.86000000    53.79000000     6.19000000
   O     57.15000000    55.90000000     5.56000000
   H     57.39000000    52.50000000     4.43000000
   H     59.16000000    54.46000000     3.15000000
   H     59.58000000    55.27000000     5.33000000
   H     59.44000000    53.76000000     6.09000000
   N     60.39000000    51.75000000     4.33000000
   C     61.50000000    50.83000000     4.48000000
   C     62.18000000    50.73000000     5.84000000
   O     63.39000000    50.57000000     5.96000000
   H     59.46000000    51.37000000     4.44000000
   H     62.29000000    51.12000000     3.77000000
   H     61.22000000    49.81000000     4.24000000
   N     61.42000000    51.01000000     6.90000000
   C     61.86000000    51.14000000     8.28000000
   C     61.81000000    49.80000000     9.00000000
   O     62.14000000    49.70000000    10.18000000
   C     61.02000000    52.20000000     9.00000000
   C     59.52000000    51.99000000     8.89000000
   O     59.09000000    50.81000000     8.91000000
   O     58.75000000    52.96000000     8.71000000
   H     60.47000000    50.96000000     6.57000000
   H     62.89000000    51.48000000     8.32000000
   H     61.21000000    53.15000000     8.51000000
   H     61.36000000    52.17000000    10.04000000
   N     61.42000000    48.75000000     8.28000000
   C     61.32000000    47.40000000     8.80000000
   C     60.02000000    47.08000000     9.53000000
   O     59.94000000    45.98000000    10.07000000
   H     60.96000000    49.00000000     7.41000000
   H     62.10000000    47.11000000     9.49000000
   H     61.40000000    46.85000000     7.86000000
   N     59.00000000    47.93000000     9.62000000
   C     57.70000000    47.72000000    10.23000000
   C     56.54000000    48.26000000     9.41000000
   O     56.67000000    49.04000000     8.47000000
   C     57.73000000    48.44000000    11.57000000
   C     58.80000000    48.05000000    12.59000000
   C     58.42000000    48.43000000    14.01000000
   N     59.12000000    49.38000000    14.62000000
   O     57.48000000    47.88000000    14.59000000
   H     59.19000000    48.82000000     9.19000000
   H     57.49000000    46.67000000    10.42000000
   H     56.74000000    48.23000000    11.98000000
   H     57.83000000    49.51000000    11.40000000
   H     59.78000000    48.46000000    12.36000000
   H     58.96000000    46.97000000    12.68000000
   H     59.88000000    49.85000000    14.16000000
   H     59.09000000    49.48000000    15.63000000
   N     55.33000000    47.80000000     9.74000000
   C     54.07000000    48.31000000     9.23000000
   C     53.29000000    49.17000000    10.22000000
   O     53.46000000    48.87000000    11.40000000
   C     53.20000000    47.27000000     8.54000000
   C     53.70000000    46.94000000     7.13000000
   C     52.95000000    46.00000000     9.34000000
   H     55.25000000    47.12000000    10.48000000
   H     54.36000000    48.98000000     8.42000000
   H     52.19000000    47.67000000     8.45000000
   H     54.62000000    46.37000000     7.20000000
   H     52.95000000    46.34000000     6.63000000
   H     53.81000000    47.87000000     6.57000000
   H     52.32000000    45.30000000     8.80000000
   H     53.84000000    45.44000000     9.63000000
   H     52.38000000    46.27000000    10.23000000
   N     52.42000000    50.07000000     9.75000000
   C     51.46000000    50.86000000    10.49000000
   C     50.07000000    50.51000000     9.98000000
   O     49.91000000    49.76000000     9.03000000
   C     51.80000000    52.34000000    10.38000000
   C     51.27000000    53.06000000     9.15000000
   N     52.18000000    53.33000000     8.21000000
   O     50.10000000    53.38000000     8.98000000
   H     52.54000000    50.38000000     8.79000000
   H     51.47000000    50.69000000    11.57000000
   H     52.83000000    52.55000000    10.67000000
   H     51.25000000    52.86000000    11.16000000
   H     52.89000000    52.63000000     8.11000000
   H     52.01000000    53.86000000     7.37000000
   N     49.02000000    51.09000000    10.57000000
   C     47.64000000    50.80000000    10.23000000
   C     47.30000000    51.03000000     8.77000000
   O     46.65000000    50.12000000     8.25000000
   C     46.73000000    51.64000000    11.13000000
   C     46.67000000    53.08000000    10.68000000
   C     45.68000000    53.44000000     9.76000000
   C     47.61000000    54.00000000    11.16000000
   C     45.64000000    54.77000000     9.36000000
   C     47.55000000    55.34000000    10.76000000
   C     46.57000000    55.72000000     9.82000000
   O     46.51000000    56.98000000     9.31000000
   H     49.18000000    51.78000000    11.29000000
   H     47.46000000    49.75000000    10.47000000
   H     47.09000000    51.60000000    12.16000000
   H     45.72000000    51.25000000    11.07000000
   H     45.03000000    52.69000000     9.34000000
   H     48.16000000    53.82000000    12.07000000
   H     44.92000000    55.11000000     8.63000000
   H     48.16000000    56.11000000    11.22000000
   H     47.17000000    57.53000000     9.75000000
   N     47.83000000    52.00000000     8.03000000
   C     47.49000000    52.24000000     6.64000000
   C     48.19000000    51.22000000     5.75000000
   O     47.63000000    50.69000000     4.80000000
   C     47.92000000    53.66000000     6.27000000
   C     47.33000000    54.14000000     4.95000000
   C     47.65000000    55.60000000     4.66000000
   O     46.76000000    56.45000000     4.87000000
   O     48.77000000    55.90000000     4.18000000
   H     48.49000000    52.52000000     8.58000000
   H     46.43000000    52.24000000     6.39000000
   H     48.99000000    53.69000000     6.10000000
   H     47.59000000    54.41000000     7.00000000
   H     46.25000000    54.00000000     4.85000000
   H     47.78000000    53.56000000     4.15000000
   N     49.39000000    50.79000000     6.14000000
   C     50.17000000    49.78000000     5.45000000
   C     49.64000000    48.37000000     5.69000000
   O     49.81000000    47.47000000     4.87000000
   C     51.64000000    49.81000000     5.87000000
   C     52.44000000    51.05000000     5.48000000
   C     53.76000000    51.12000000     6.24000000
   O     53.73000000    51.10000000     7.49000000
   O     54.86000000    51.39000000     5.73000000
   H     49.79000000    51.13000000     7.01000000
   H     50.14000000    49.94000000     4.37000000
   H     52.09000000    49.02000000     5.27000000
   H     51.80000000    49.53000000     6.91000000
   H     51.77000000    51.86000000     5.77000000
   H     52.59000000    51.05000000     4.40000000
   N     48.90000000    48.21000000     6.79000000
   C     48.38000000    46.89000000     7.08000000
   H     47.40400000    46.77300000     6.60800000
   H     49.06400000    46.13600000     6.69100000
   H     48.27800000    46.76800000     8.15800000
   H     48.76000000    48.93000000     7.49000000
  Ca     56.57000000    51.77000000     7.81000000
   O     55.21000000    53.89000000     8.77000000
   H     55.69000000    54.32000000     9.47000000
   H     54.85000000    54.61000000     8.24000000
   O     56.07000000    51.44000000    10.42000000
   H     56.94000000    51.57000000    10.81000000
   H     55.47000000    51.53000000    11.16000000

Ca 1.00



