%chk=loop1.apoCaM-CA-Ng.Init295.run32.water6.chk
%nprocshared=20
%mem=10GB
%nosave
#b3lyp/svp scf=(tight,noincore,xqc) Test 
#IOP(5/87=12) Density=Current Pop=(MK,readradii) iop(6/33=2) iop(6/42=6)

loop1.apoCaM-CA-Ng.Init295.run32.water6 

   0  1 
   C     93.28000000    89.40000000    70.20000000
   C     93.23000000    90.14000000    68.88000000
   O     92.23000000    90.72000000    68.46000000
   H     93.43200000    90.11300000    71.01000000
   H     92.34100000    88.86900000    70.35500000
   H     94.10400000    88.68600000    70.18600000
   N     94.33000000    90.08000000    68.12000000
   C     94.50000000    90.57000000    66.77000000
   C     94.18000000    92.06000000    66.71000000
   O     93.54000000    92.54000000    65.78000000
   C     93.60000000    89.72000000    65.87000000
   C     93.97000000    89.64000000    64.40000000
   O     93.10000000    89.28000000    63.58000000
   O     95.18000000    89.86000000    64.15000000
   H     95.14000000    89.61000000    68.49000000
   H     95.54000000    90.43000000    66.48000000
   H     92.54000000    89.97000000    65.86000000
   H     93.60000000    88.73000000    66.32000000
   N     94.74000000    92.86000000    67.61000000
   C     94.56000000    94.30000000    67.60000000
   C     95.58000000    95.23000000    66.96000000
   O     95.34000000    96.43000000    66.85000000
   C     94.26000000    94.80000000    69.02000000
   C     92.99000000    94.21000000    69.61000000
   C     92.93000000    94.61000000    71.09000000
   C     91.83000000    93.96000000    71.91000000
   N     91.99000000    94.31000000    73.33000000
   H     95.45000000    92.46000000    68.20000000
   H     93.70000000    94.65000000    67.04000000
   H     94.16000000    95.88000000    69.09000000
   H     95.08000000    94.51000000    69.67000000
   H     93.03000000    93.12000000    69.64000000
   H     92.14000000    94.60000000    69.04000000
   H     92.74000000    95.68000000    71.07000000
   H     93.93000000    94.44000000    71.50000000
   H     91.81000000    92.88000000    71.81000000
   H     90.85000000    94.36000000    71.65000000
   H     91.91000000    95.31000000    73.50000000
   H     91.24000000    93.84000000    73.81000000
   H     92.87000000    93.93000000    73.66000000
   N     96.70000000    94.71000000    66.45000000
   C     97.73000000    95.57000000    65.90000000
   C     97.75000000    95.64000000    64.38000000
   O     98.51000000    96.38000000    63.76000000
   C     99.05000000    95.01000000    66.44000000
   C    100.20000000    95.98000000    66.22000000
   O    101.34000000    95.51000000    66.39000000
   O    100.02000000    97.15000000    65.83000000
   H     96.91000000    93.73000000    66.57000000
   H     97.64000000    96.59000000    66.25000000
   H     99.32000000    94.08000000    65.95000000
   H     99.04000000    94.88000000    67.52000000
   N     96.85000000    94.88000000    63.75000000
   C     96.52000000    95.09000000    62.35000000
   C     97.58000000    94.43000000    61.47000000
   O     97.59000000    93.25000000    61.15000000
   H     96.26000000    94.33000000    64.36000000
   H     96.40000000    96.15000000    62.18000000
   H     95.64000000    94.54000000    62.02000000
   N     98.46000000    95.30000000    60.97000000
   C     99.66000000    94.81000000    60.31000000
   C    100.73000000    94.27000000    61.26000000
   O    101.73000000    93.79000000    60.72000000
   C    100.33000000    95.92000000    59.51000000
   C    100.49000000    97.28000000    60.18000000
   O    101.18000000    98.11000000    59.55000000
   O     99.88000000    97.65000000    61.21000000
   H     98.49000000    96.26000000    61.29000000
   H     99.34000000    94.07000000    59.58000000
   H     99.72000000    96.11000000    58.64000000
   H    101.30000000    95.63000000    59.11000000
   N    100.50000000    94.16000000    62.57000000
   C    101.32000000    93.38000000    63.47000000
   C    100.75000000    92.00000000    63.76000000
   O     99.57000000    91.73000000    63.53000000
   H     99.67000000    94.57000000    62.96000000
   H    101.42000000    93.87000000    64.44000000
   H    102.32000000    93.24000000    63.07000000
   N    101.47000000    91.12000000    64.46000000
   C    100.98000000    89.88000000    65.01000000
   C    102.05000000    88.80000000    65.06000000
   O    103.24000000    89.06000000    64.89000000
   C    100.37000000    90.20000000    66.37000000
   C     99.33000000    89.24000000    66.94000000
   O    101.35000000    90.23000000    67.38000000
   H    102.42000000    91.30000000    64.77000000
   H    100.20000000    89.56000000    64.31000000
   H     99.81000000    91.12000000    66.19000000
   H    101.46000000    91.12000000    67.73000000
   H     99.78000000    88.34000000    67.37000000
   H     98.73000000    89.78000000    67.67000000
   H     98.73000000    88.88000000    66.11000000
   N    101.63000000    87.55000000    65.28000000
   C    102.43000000    86.35000000    65.25000000
   C    102.44000000    85.78000000    63.84000000
   O    103.43000000    85.17000000    63.44000000
   C    102.14000000    85.32000000    66.34000000
   C    100.89000000    84.51000000    65.96000000
   C    101.98000000    85.95000000    67.72000000
   C    100.78000000    83.18000000    66.70000000
   H    100.62000000    87.45000000    65.31000000
   H    103.46000000    86.68000000    65.41000000
   H    103.06000000    84.74000000    66.39000000
   H    100.88000000    84.31000000    64.89000000
   H     99.98000000    85.07000000    66.15000000
   H    102.91000000    86.39000000    68.10000000
   H    101.12000000    86.61000000    67.70000000
   H    101.80000000    85.18000000    68.47000000
   H    100.58000000    83.39000000    67.76000000
   H     99.92000000    82.65000000    66.30000000
   H    101.67000000    82.59000000    66.50000000
   N    101.38000000    86.02000000    63.07000000
   C    101.11000000    85.32000000    61.83000000
   C     99.90000000    84.40000000    61.87000000
   O     99.06000000    84.59000000    62.75000000
   C    101.18000000    86.19000000    60.58000000
   C    102.58000000    86.75000000    60.33000000
   O    100.91000000    85.49000000    59.39000000
   H    100.71000000    86.61000000    63.54000000
   H    101.94000000    84.63000000    61.72000000
   H    100.44000000    86.98000000    60.68000000
   H    100.86000000    86.02000000    58.59000000
   H    102.71000000    87.43000000    61.18000000
   H    103.32000000    85.96000000    60.33000000
   H    102.68000000    87.27000000    59.38000000
   N     99.75000000    83.39000000    61.01000000
   C     98.73000000    82.37000000    60.99000000
   C     99.21000000    81.13000000    61.74000000
   O     98.47000000    80.73000000    62.63000000
   C     98.39000000    82.16000000    59.52000000
   C     97.69000000    83.26000000    58.72000000
   O     97.58000000    81.01000000    59.48000000
   H    100.54000000    83.23000000    60.40000000
   H     97.80000000    82.72000000    61.44000000
   H     99.31000000    81.84000000    59.02000000
   H     97.40000000    80.80000000    58.56000000
   H     98.27000000    84.14000000    58.99000000
   H     97.65000000    83.06000000    57.65000000
   H     96.65000000    83.40000000    59.00000000
   N    100.45000000    80.70000000    61.48000000
   C    100.98000000    79.64000000    62.32000000
   C    101.42000000    80.11000000    63.69000000
   O    101.71000000    81.28000000    63.92000000
   C    102.10000000    78.88000000    61.61000000
   C    103.48000000    79.51000000    61.81000000
   C    104.41000000    78.82000000    60.81000000
   C    105.84000000    79.34000000    60.93000000
   N    106.69000000    78.81000000    59.86000000
   H    100.99000000    81.03000000    60.70000000
   H    100.10000000    79.01000000    62.47000000
   H    102.02000000    78.84000000    60.52000000
   H    102.20000000    77.85000000    61.94000000
   H    103.87000000    79.41000000    62.82000000
   H    103.45000000    80.59000000    61.63000000
   H    104.03000000    78.88000000    59.79000000
   H    104.40000000    77.76000000    61.03000000
   H    106.20000000    79.13000000    61.93000000
   H    105.76000000    80.43000000    60.94000000
   H    106.64000000    77.80000000    59.78000000
   H    106.28000000    79.13000000    58.99000000
   H    107.66000000    79.06000000    59.89000000
   N    101.37000000    79.15000000    64.62000000
   C    101.78000000    79.30000000    66.00000000
   C    101.31000000    78.07000000    66.77000000
   O    101.41000000    76.94000000    66.30000000
   C    103.29000000    79.47000000    66.10000000
   C    103.67000000    79.96000000    67.50000000
   C    105.18000000    80.02000000    67.61000000
   O    105.80000000    81.10000000    67.57000000
   O    105.79000000    78.94000000    67.76000000
   H    101.06000000    78.23000000    64.36000000
   H    101.22000000    80.17000000    66.35000000
   H    103.58000000    80.24000000    65.38000000
   H    103.70000000    78.49000000    65.88000000
   H    103.34000000    79.25000000    68.26000000
   H    103.12000000    80.86000000    67.77000000
   N    100.66000000    78.20000000    67.93000000
   C    100.08000000    79.35000000    68.59000000
   H     99.08700000    79.09300000    68.96000000
   H    100.71300000    79.64800000    69.42600000
   H    100.00100000    80.17500000    67.88200000
   H    100.43000000    77.32000000    68.36000000
  Ca    100.20900000    98.48000000    63.62000000
   O     97.72000000    99.27000000    62.95000000
   H     96.82000000    98.95000000    62.91000000
   H     97.67000000   100.17000000    62.63000000
   O     99.21000000   100.40900000    65.24000000
   H     99.30000000   101.22900000    64.75000000
   H     98.28000000   100.36900000    65.45000000
   O    100.24900000   101.50900000    62.79000000
   H    100.20900000   102.43900000    63.02000000
   H    100.51900000   101.50900000    61.88000000
   O    102.14900000    96.71000000    63.25000000
   H    102.82900000    96.57000000    62.60000000
   H    102.27900000    96.00000000    63.89000000
   O    102.25900000    99.18000000    61.87000000
   H    103.14900000    99.41000000    61.62000000
   H    101.89900000    98.73000000    61.10000000
   O    102.26900000    99.30000000    65.22000000
   H    102.61900000    99.01000000    66.06000000
   H    102.44900000   100.23000000    65.19000000

Ca 1.00



