%chk=loop1.apoCaM-CA-Ng.Init31.run62.water4.chk
%nprocshared=20
%mem=10GB
%nosave
#b3lyp/svp scf=(tight,noincore,xqc) Test 
#IOP(5/87=12) Density=Current Pop=(MK,readradii) iop(6/33=2) iop(6/42=6)

loop1.apoCaM-CA-Ng.Init31.run62.water4 

   0  1 
   C     65.07000000    83.08000000    12.84000000
   C     64.10000000    83.09000000    11.67000000
   O     63.94000000    84.07000000    10.94000000
   H     65.94400000    83.68300000    12.59200000
   H     64.58100000    83.49500000    13.72200000
   H     65.38200000    82.05600000    13.04500000
   N     63.47000000    81.95000000    11.40000000
   C     62.77000000    81.65000000    10.16000000
   C     61.48000000    80.90000000    10.45000000
   O     61.21000000    80.28000000    11.49000000
   C     63.64000000    80.82000000     9.23000000
   C     63.46000000    81.15000000     7.76000000
   O     64.11000000    80.53000000     6.89000000
   O     62.54000000    81.91000000     7.38000000
   H     63.48000000    81.18000000    12.05000000
   H     62.59000000    82.63000000     9.73000000
   H     63.40000000    79.77000000     9.40000000
   H     64.68000000    81.05000000     9.45000000
   N     60.72000000    80.87000000     9.36000000
   C     59.39000000    80.30000000     9.38000000
   C     59.36000000    78.79000000     9.56000000
   O     58.65000000    78.28000000    10.42000000
   C     58.51000000    80.78000000     8.22000000
   C     58.23000000    82.26000000     8.44000000
   C     57.56000000    82.90000000     7.23000000
   C     56.11000000    82.59000000     6.87000000
   N     55.18000000    82.92000000     7.96000000
   H     61.08000000    81.31000000     8.52000000
   H     58.95000000    80.66000000    10.30000000
   H     57.63000000    80.15000000     8.11000000
   H     59.03000000    80.67000000     7.27000000
   H     59.21000000    82.73000000     8.53000000
   H     57.59000000    82.49000000     9.29000000
   H     58.16000000    82.67000000     6.35000000
   H     57.73000000    83.96000000     7.42000000
   H     56.02000000    81.52000000     6.68000000
   H     55.81000000    83.14000000     5.97000000
   H     54.27000000    83.09000000     7.55000000
   H     55.03000000    82.15000000     8.60000000
   H     55.34000000    83.75000000     8.51000000
   N     59.95000000    77.95000000     8.70000000
   C     60.84000000    78.22000000     7.60000000
   C     62.08000000    77.35000000     7.72000000
   O     61.90000000    76.22000000     8.17000000
   C     60.18000000    78.01000000     6.23000000
   C     61.09000000    78.33000000     5.06000000
   O     62.09000000    79.07000000     5.22000000
   O     60.94000000    77.75000000     3.96000000
   H     59.83000000    76.99000000     9.01000000
   H     61.12000000    79.28000000     7.60000000
   H     59.27000000    78.59000000     6.11000000
   H     59.99000000    76.94000000     6.28000000
   N     63.26000000    77.79000000     7.27000000
   C     64.39000000    76.91000000     7.05000000
   C     65.66000000    77.59000000     6.57000000
   O     66.47000000    78.09000000     7.35000000
   H     63.26000000    78.68000000     6.79000000
   H     63.99000000    76.18000000     6.34000000
   H     64.66000000    76.32000000     7.92000000
   N     65.90000000    77.59000000     5.25000000
   C     67.15000000    78.05000000     4.69000000
   C     68.15000000    76.95000000     4.35000000
   O     67.67000000    75.86000000     4.02000000
   C     67.01000000    78.85000000     3.39000000
   C     65.93000000    79.92000000     3.33000000
   O     66.09000000    80.85000000     4.14000000
   O     64.87000000    79.72000000     2.70000000
   H     65.22000000    77.30000000     4.56000000
   H     67.59000000    78.75000000     5.40000000
   H     66.82000000    78.14000000     2.59000000
   H     67.97000000    79.32000000     3.19000000
   N     69.48000000    77.06000000     4.44000000
   C     70.22000000    78.25000000     4.78000000
   C     70.58000000    79.22000000     3.67000000
   O     70.99000000    80.37000000     3.86000000
   H     69.99000000    76.24000000     4.14000000
   H     71.18000000    77.95000000     5.20000000
   H     69.66000000    78.78000000     5.56000000
   N     70.46000000    78.82000000     2.40000000
   C     71.21000000    79.32000000     1.26000000
   C     72.71000000    79.14000000     1.40000000
   O     73.46000000    80.12000000     1.32000000
   C     70.84000000    80.74000000     0.84000000
   C     69.35000000    80.94000000     0.63000000
   O     71.33000000    81.00000000    -0.46000000
   H     70.01000000    77.93000000     2.23000000
   H     70.84000000    78.72000000     0.42000000
   H     71.19000000    81.47000000     1.57000000
   H     72.27000000    81.05000000    -0.30000000
   H     69.03000000    80.12000000     0.00000000
   H     68.89000000    81.01000000     1.62000000
   H     69.25000000    81.92000000     0.17000000
   N     73.19000000    77.96000000     1.80000000
   C     74.53000000    77.45000000     2.04000000
   C     75.45000000    77.41000000     0.83000000
   O     75.93000000    76.33000000     0.50000000
   C     75.22000000    77.95000000     3.30000000
   C     74.31000000    77.81000000     4.52000000
   C     76.68000000    77.54000000     3.50000000
   C     74.22000000    76.38000000     5.03000000
   H     72.40000000    77.36000000     2.02000000
   H     74.37000000    76.39000000     2.22000000
   H     75.31000000    79.02000000     3.11000000
   H     73.36000000    78.28000000     4.27000000
   H     74.87000000    78.37000000     5.27000000
   H     77.29000000    77.84000000     2.65000000
   H     77.05000000    77.93000000     4.45000000
   H     76.74000000    76.45000000     3.62000000
   H     74.00000000    75.63000000     4.26000000
   H     75.11000000    76.21000000     5.63000000
   H     73.33000000    76.30000000     5.66000000
   N     75.90000000    78.56000000     0.32000000
   C     76.64000000    78.73000000    -0.91000000
   C     77.59000000    79.91000000    -0.74000000
   O     77.28000000    80.87000000    -0.03000000
   C     75.77000000    78.98000000    -2.13000000
   C     74.70000000    80.08000000    -2.09000000
   O     75.16000000    77.74000000    -2.40000000
   H     75.52000000    79.43000000     0.66000000
   H     77.33000000    77.90000000    -1.08000000
   H     76.42000000    79.14000000    -2.99000000
   H     74.33000000    77.86000000    -1.94000000
   H     73.97000000    79.89000000    -1.31000000
   H     75.24000000    81.01000000    -1.92000000
   H     74.17000000    80.18000000    -3.04000000
   N     78.74000000    79.91000000    -1.40000000
   C     79.54000000    81.12000000    -1.48000000
   C     78.92000000    82.30000000    -2.19000000
   O     78.04000000    82.04000000    -3.01000000
   C     80.95000000    80.86000000    -2.01000000
   C     81.68000000    79.78000000    -1.22000000
   O     80.89000000    80.51000000    -3.38000000
   H     79.03000000    79.17000000    -2.02000000
   H     79.67000000    81.38000000    -0.43000000
   H     81.53000000    81.78000000    -1.98000000
   H     80.56000000    79.61000000    -3.44000000
   H     81.17000000    78.82000000    -1.13000000
   H     82.71000000    79.60000000    -1.53000000
   H     81.78000000    80.21000000    -0.23000000
   N     79.16000000    83.52000000    -1.71000000
   C     78.60000000    84.78000000    -2.15000000
   C     77.09000000    84.91000000    -2.00000000
   O     76.32000000    85.34000000    -2.86000000
   C     79.14000000    85.10000000    -3.55000000
   C     80.66000000    85.08000000    -3.54000000
   C     81.41000000    85.63000000    -4.75000000
   C     82.94000000    85.59000000    -4.69000000
   N     83.75000000    86.28000000    -5.70000000
   H     79.88000000    83.53000000    -1.00000000
   H     79.03000000    85.49000000    -1.44000000
   H     78.81000000    86.12000000    -3.74000000
   H     78.77000000    84.44000000    -4.34000000
   H     81.07000000    84.08000000    -3.40000000
   H     81.04000000    85.58000000    -2.64000000
   H     81.04000000    86.64000000    -4.91000000
   H     80.99000000    85.08000000    -5.59000000
   H     83.27000000    84.56000000    -4.83000000
   H     83.23000000    85.80000000    -3.67000000
   H     83.47000000    87.25000000    -5.77000000
   H     84.69000000    86.47000000    -5.38000000
   H     83.83000000    85.75000000    -6.56000000
   N     76.53000000    84.43000000    -0.90000000
   C     75.11000000    84.43000000    -0.61000000
   C     74.59000000    83.26000000     0.21000000
   O     73.58000000    82.68000000    -0.20000000
   C     74.63000000    85.70000000     0.09000000
   C     74.50000000    86.90000000    -0.84000000
   C     74.28000000    88.14000000     0.00000000
   O     75.15000000    89.04000000    -0.10000000
   O     73.31000000    88.27000000     0.77000000
   H     77.18000000    83.98000000    -0.27000000
   H     74.51000000    84.42000000    -1.52000000
   H     75.27000000    86.01000000     0.91000000
   H     73.65000000    85.56000000     0.56000000
   H     73.71000000    86.83000000    -1.58000000
   H     75.45000000    87.01000000    -1.37000000
   N     75.27000000    82.70000000     1.22000000
   C     76.46000000    83.03000000     1.98000000
   H     77.23400000    83.39100000     1.30300000
   H     76.22400000    83.80700000     2.70700000
   H     76.81800000    82.14100000     2.50000000
   H     74.87000000    81.79000000     1.39000000
  Ca     63.39000000    81.10000000     4.47000000
   O     64.37000000    83.37000000     5.64000000
   H     64.58000000    83.45000000     6.57000000
   H     64.03000000    84.23000000     5.40000000
   O     61.92000000    79.89000000     2.57000000
   H     61.50000000    79.11000000     2.94000000
   H     61.38000000    80.10000000     1.80000000
   O     60.95000000    82.23000000     4.83000000
   H     60.54000000    82.79000000     5.49000000
   H     60.22000000    81.82000000     4.38000000
   O     63.59000000    82.21000000     2.07000000
   H     62.87000000    82.60000000     1.56000000
   H     64.08000000    81.69000000     1.44000000

Ca 1.00



