%chk=loop3.apoCaM-CA-Ng.Init293.run52.water4.chk
%nprocshared=20
%mem=10GB
%nosave
#b3lyp/svp scf=(tight,noincore,xqc) Test 
#IOP(5/87=12) Density=Current Pop=(MK,readradii) iop(6/33=2) iop(6/42=6)

loop3.apoCaM-CA-Ng.Init293.run52.water4 

   0  1 
   C     41.88000000    76.04000000    71.58000000
   C     43.11000000    76.00000000    70.69000000
   O     44.14000000    76.60000000    71.02000000
   H     41.03500000    75.59900000    71.05100000
   H     42.07200000    75.47500000    72.49200000
   H     41.64900000    77.07400000    71.83500000
   N     43.01000000    75.28000000    69.58000000
   C     43.95000000    75.27000000    68.48000000
   C     43.98000000    73.97000000    67.69000000
   O     42.97000000    73.32000000    67.45000000
   C     43.64000000    76.44000000    67.55000000
   C     44.79000000    76.73000000    66.59000000
   O     45.97000000    76.41000000    66.86000000
   O     44.35000000    77.32000000    65.58000000
   H     42.18000000    74.69000000    69.54000000
   H     44.95000000    75.38000000    68.88000000
   H     43.54000000    77.38000000    68.08000000
   H     42.70000000    76.31000000    67.01000000
   N     45.14000000    73.58000000    67.16000000
   C     45.27000000    72.54000000    66.15000000
   C     44.47000000    72.81000000    64.89000000
   O     44.52000000    73.93000000    64.37000000
   C     45.05000000    71.20000000    66.84000000
   C     45.90000000    70.75000000    68.02000000
   C     47.36000000    70.70000000    67.57000000
   C     48.30000000    69.91000000    68.47000000
   N     48.32000000    70.56000000    69.79000000
   H     45.94000000    74.14000000    67.41000000
   H     46.26000000    72.50000000    65.71000000
   H     45.08000000    70.40000000    66.10000000
   H     44.07000000    71.10000000    67.31000000
   H     45.55000000    69.81000000    68.46000000
   H     45.81000000    71.51000000    68.79000000
   H     47.74000000    71.71000000    67.51000000
   H     47.45000000    70.20000000    66.61000000
   H     49.31000000    69.92000000    68.05000000
   H     47.86000000    68.91000000    68.44000000
   H     48.49000000    71.56000000    69.75000000
   H     47.45000000    70.36000000    70.26000000
   H     48.94000000    70.17000000    70.49000000
   N     43.85000000    71.82000000    64.24000000
   C     42.92000000    71.92000000    63.13000000
   C     41.53000000    71.46000000    63.53000000
   O     41.37000000    70.93000000    64.63000000
   C     43.42000000    71.14000000    61.92000000
   C     43.58000000    69.65000000    62.20000000
   O     44.16000000    69.18000000    63.20000000
   O     43.05000000    68.82000000    61.43000000
   H     43.84000000    70.91000000    64.67000000
   H     42.87000000    72.96000000    62.80000000
   H     44.36000000    71.58000000    61.59000000
   H     42.63000000    71.28000000    61.18000000
   N     40.52000000    71.59000000    62.66000000
   C     39.15000000    71.13000000    62.84000000
   C     38.94000000    69.95000000    61.90000000
   O     39.35000000    69.94000000    60.74000000
   H     40.64000000    72.00000000    61.75000000
   H     38.54000000    71.98000000    62.54000000
   H     39.02000000    70.87000000    63.88000000
   N     38.33000000    68.91000000    62.47000000
   C     38.27000000    67.52000000    62.04000000
   C     36.87000000    66.93000000    62.07000000
   O     36.69000000    65.75000000    61.81000000
   C     39.16000000    66.65000000    62.93000000
   C     40.59000000    67.13000000    62.76000000
   N     41.04000000    68.18000000    63.44000000
   O     41.35000000    66.51000000    62.01000000
   H     37.89000000    69.06000000    63.37000000
   H     38.68000000    67.44000000    61.03000000
   H     39.20000000    65.62000000    62.60000000
   H     38.96000000    66.73000000    64.00000000
   H     40.46000000    68.64000000    64.13000000
   H     41.89000000    68.60000000    63.10000000
   N     35.83000000    67.77000000    62.19000000
   C     34.44000000    67.53000000    61.86000000
   C     33.79000000    66.61000000    62.88000000
   O     33.71000000    67.01000000    64.03000000
   H     36.10000000    68.74000000    62.22000000
   H     34.37000000    67.22000000    60.82000000
   H     33.92000000    68.48000000    62.01000000
   N     33.39000000    65.38000000    62.52000000
   C     32.85000000    64.41000000    63.46000000
   C     33.84000000    63.96000000    64.52000000
   O     33.54000000    63.23000000    65.46000000
   C     31.56000000    64.86000000    64.12000000
   C     30.58000000    65.73000000    63.37000000
   C     30.19000000    65.40000000    62.07000000
   C     30.13000000    66.94000000    63.91000000
   C     29.42000000    66.32000000    61.34000000
   C     29.21000000    67.74000000    63.21000000
   C     28.94000000    67.54000000    61.85000000
   O     28.25000000    68.44000000    61.08000000
   H     33.66000000    65.04000000    61.61000000
   H     32.50000000    63.62000000    62.80000000
   H     31.79000000    65.36000000    65.06000000
   H     30.97000000    64.04000000    64.54000000
   H     30.56000000    64.47000000    61.67000000
   H     30.36000000    67.16000000    64.94000000
   H     29.21000000    66.18000000    60.29000000
   H     28.89000000    68.65000000    63.70000000
   H     27.85000000    69.19000000    61.52000000
   N     35.13000000    64.20000000    64.28000000
   C     36.38000000    63.86000000    64.93000000
   C     36.76000000    62.39000000    64.83000000
   O     37.93000000    62.03000000    64.79000000
   C     36.29000000    64.24000000    66.40000000
   C     35.84000000    65.66000000    66.75000000
   C     37.62000000    63.98000000    67.10000000
   C     36.63000000    66.78000000    66.08000000
   H     35.27000000    64.48000000    63.32000000
   H     37.11000000    64.54000000    64.47000000
   H     35.60000000    63.55000000    66.89000000
   H     35.94000000    65.81000000    67.82000000
   H     34.79000000    65.78000000    66.48000000
   H     37.60000000    64.38000000    68.12000000
   H     37.82000000    62.91000000    67.12000000
   H     38.48000000    64.47000000    66.64000000
   H     36.42000000    66.83000000    65.02000000
   H     36.26000000    67.71000000    66.52000000
   H     37.68000000    66.50000000    66.15000000
   N     35.77000000    61.50000000    64.78000000
   C     36.07000000    60.08000000    64.80000000
   C     36.91000000    59.61000000    65.98000000
   O     37.67000000    58.65000000    65.83000000
   C     34.74000000    59.33000000    64.87000000
   O     33.98000000    59.77000000    65.97000000
   H     34.81000000    61.81000000    64.83000000
   H     36.56000000    59.87000000    63.85000000
   H     35.00000000    58.28000000    65.05000000
   H     34.15000000    59.54000000    63.98000000
   H     33.25000000    59.16000000    66.00000000
   N     36.87000000    60.26000000    67.14000000
   C     37.65000000    60.07000000    68.35000000
   C     39.17000000    60.13000000    68.22000000
   O     39.84000000    59.57000000    69.08000000
   C     37.09000000    58.91000000    69.17000000
   H     36.05000000    60.84000000    67.20000000
   H     37.39000000    60.94000000    68.97000000
   H     37.20000000    57.99000000    68.58000000
   H     37.61000000    58.74000000    70.11000000
   H     36.06000000    59.18000000    69.36000000
   N     39.76000000    60.93000000    67.33000000
   C     41.13000000    61.01000000    66.85000000
   C     41.78000000    62.32000000    67.27000000
   O     41.03000000    63.29000000    67.36000000
   C     41.17000000    60.75000000    65.35000000
   H     39.16000000    61.59000000    66.85000000
   H     41.71000000    60.21000000    67.31000000
   H     42.16000000    61.03000000    64.98000000
   H     40.90000000    59.72000000    65.12000000
   H     40.51000000    61.42000000    64.80000000
   N     43.10000000    62.28000000    67.47000000
   C     43.90000000    63.40000000    67.91000000
   C     43.73000000    63.84000000    69.36000000
   O     44.40000000    64.73000000    69.87000000
   C     43.88000000    64.49000000    66.85000000
   C     44.33000000    64.01000000    65.47000000
   C     44.48000000    65.19000000    64.53000000
   O     43.64000000    66.11000000    64.40000000
   O     45.44000000    65.33000000    63.75000000
   H     43.53000000    61.37000000    67.47000000
   H     44.92000000    63.01000000    67.92000000
   H     44.58000000    65.27000000    67.15000000
   H     42.84000000    64.80000000    66.73000000
   H     43.50000000    63.41000000    65.09000000
   H     45.20000000    63.35000000    65.51000000
   N     42.74000000    63.28000000    70.06000000
   C     42.23000000    63.73000000    71.34000000
   H     41.20800000    63.37300000    71.46900000
   H     42.85600000    63.33500000    72.14000000
   H     42.24100000    64.81900000    71.37300000
   H     42.16000000    62.70000000    69.46000000
  Ca     44.03000000    66.45000000    61.80000000
   O     45.76000000    67.74000000    60.12000000
   H     46.12000000    67.12000000    59.48000000
   H     46.38000000    68.46000000    60.13000000
   O     43.14000000    66.45000000    59.31000000
   H     43.44000000    65.82000000    58.66000000
   H     42.45000000    66.95000000    58.87000000
   O     43.01000000    63.91000000    62.18000000
   H     43.57000000    63.13000000    62.16000000
   H     42.17000000    63.59000000    62.53000000
   O     45.70000000    64.89000000    60.49000000
   H     45.43000000    64.15000000    59.95000000
   H     46.62000000    64.73000000    60.69000000

Ca 1.00



