%chk=loop3.apoCaM-CA-Ng.Init295.run15.water3.chk
%nprocshared=20
%mem=10GB
%nosave
#b3lyp/svp scf=(tight,noincore,xqc) Test 
#IOP(5/87=12) Density=Current Pop=(MK,readradii) iop(6/33=2) iop(6/42=6)

loop3.apoCaM-CA-Ng.Init295.run15.water3 

   0  1 
   C    111.58000000    44.18000000    67.22000000
   C    112.70000000    44.21000000    68.25000000
   O    112.64000000    43.52000000    69.26000000
   H    110.74800000    44.79000000    67.57100000
   H    111.94600000    44.57600000    66.27300000
   H    111.24300000    43.15300000    67.07900000
   N    113.77000000    44.96000000    67.95000000
   C    114.99000000    45.01000000    68.73000000
   C    115.55000000    46.42000000    68.67000000
   O    115.67000000    46.98000000    67.58000000
   C    115.94000000    43.99000000    68.11000000
   C    117.22000000    43.86000000    68.92000000
   O    117.35000000    42.98000000    69.80000000
   O    118.21000000    44.60000000    68.75000000
   H    113.80000000    45.23000000    66.98000000
   H    114.70000000    44.69000000    69.74000000
   H    116.23000000    44.30000000    67.10000000
   H    115.39000000    43.06000000    68.00000000
   N    115.99000000    46.93000000    69.82000000
   C    116.42000000    48.32000000    69.85000000
   C    117.74000000    48.57000000    69.15000000
   O    118.10000000    49.73000000    68.94000000
   C    116.47000000    48.79000000    71.31000000
   C    115.08000000    48.70000000    71.92000000
   C    114.98000000    49.37000000    73.29000000
   C    115.27000000    50.87000000    73.26000000
   N    114.30000000    51.65000000    72.47000000
   H    115.78000000    46.41000000    70.66000000
   H    115.72000000    49.01000000    69.39000000
   H    116.78000000    49.83000000    71.28000000
   H    117.20000000    48.18000000    71.83000000
   H    114.79000000    47.64000000    71.97000000
   H    114.36000000    49.26000000    71.31000000
   H    115.75000000    48.91000000    73.91000000
   H    114.02000000    49.19000000    73.78000000
   H    116.22000000    51.01000000    72.75000000
   H    115.36000000    51.25000000    74.27000000
   H    114.24000000    51.33000000    71.52000000
   H    113.39000000    51.69000000    72.91000000
   H    114.62000000    52.61000000    72.43000000
   N    118.41000000    47.53000000    68.64000000
   C    119.48000000    47.64000000    67.66000000
   C    119.21000000    46.84000000    66.40000000
   O    120.12000000    46.72000000    65.58000000
   C    120.84000000    47.37000000    68.30000000
   C    120.90000000    46.00000000    68.95000000
   O    121.02000000    45.00000000    68.21000000
   O    120.72000000    45.86000000    70.18000000
   H    118.26000000    46.58000000    68.93000000
   H    119.53000000    48.66000000    67.28000000
   H    121.05000000    48.16000000    69.02000000
   H    121.62000000    47.45000000    67.55000000
   N    118.05000000    46.23000000    66.16000000
   C    117.58000000    45.46000000    65.03000000
   C    118.23000000    44.12000000    64.75000000
   O    118.04000000    43.59000000    63.66000000
   H    117.38000000    46.40000000    66.90000000
   H    117.65000000    46.07000000    64.13000000
   H    116.49000000    45.47000000    65.05000000
   N    119.00000000    43.53000000    65.68000000
   C    119.51000000    42.18000000    65.64000000
   C    119.22000000    41.44000000    66.94000000
   O    119.54000000    41.85000000    68.05000000
   C    121.02000000    42.34000000    65.49000000
   C    121.71000000    40.98000000    65.40000000
   N    123.01000000    40.99000000    65.71000000
   O    121.20000000    39.91000000    65.07000000
   H    119.20000000    44.06000000    66.52000000
   H    119.13000000    41.57000000    64.81000000
   H    121.43000000    43.01000000    66.24000000
   H    121.30000000    42.85000000    64.57000000
   H    123.45000000    41.84000000    66.02000000
   H    123.59000000    40.17000000    65.61000000
   N    118.50000000    40.34000000    66.70000000
   C    117.53000000    39.76000000    67.61000000
   C    118.06000000    39.10000000    68.88000000
   O    117.24000000    38.53000000    69.61000000
   H    118.27000000    40.23000000    65.72000000
   H    116.72000000    39.17000000    67.18000000
   H    117.03000000    40.65000000    67.99000000
   N    119.37000000    39.15000000    69.11000000
   C    119.99000000    38.59000000    70.29000000
   C    119.96000000    39.61000000    71.42000000
   O    120.15000000    40.79000000    71.14000000
   C    121.32000000    37.89000000    70.03000000
   C    121.29000000    36.71000000    69.09000000
   C    121.64000000    36.82000000    67.74000000
   C    120.75000000    35.52000000    69.61000000
   C    121.35000000    35.79000000    66.84000000
   C    120.56000000    34.44000000    68.74000000
   C    120.79000000    34.61000000    67.36000000
   O    120.70000000    33.49000000    66.59000000
   H    119.91000000    39.77000000    68.52000000
   H    119.42000000    37.74000000    70.65000000
   H    121.75000000    37.59000000    70.99000000
   H    122.11000000    38.62000000    69.87000000
   H    122.00000000    37.72000000    67.28000000
   H    120.47000000    35.54000000    70.65000000
   H    121.65000000    35.92000000    65.81000000
   H    120.08000000    33.53000000    69.07000000
   H    120.15000000    32.83000000    67.01000000
   N    119.64000000    39.09000000    72.61000000
   C    119.47000000    39.64000000    73.94000000
   C    120.75000000    40.19000000    74.54000000
   O    121.65000000    40.74000000    73.90000000
   C    118.13000000    40.37000000    74.04000000
   C    117.00000000    39.70000000    73.26000000
   C    118.23000000    41.84000000    73.63000000
   C    115.70000000    39.97000000    74.01000000
   H    119.49000000    38.09000000    72.64000000
   H    119.24000000    38.78000000    74.57000000
   H    118.00000000    40.33000000    75.12000000
   H    117.12000000    38.62000000    73.19000000
   H    116.96000000    40.08000000    72.24000000
   H    118.40000000    41.88000000    72.55000000
   H    117.38000000    42.36000000    74.08000000
   H    119.05000000    42.34000000    74.14000000
   H    115.44000000    41.03000000    73.92000000
   H    114.94000000    39.31000000    73.61000000
   H    115.82000000    39.89000000    75.09000000
   N    120.78000000    40.21000000    75.87000000
   C    121.80000000    40.90000000    76.63000000
   C    121.96000000    40.40000000    78.06000000
   O    123.10000000    40.30000000    78.51000000
   C    121.48000000    42.39000000    76.71000000
   O    120.27000000    42.53000000    77.41000000
   H    120.33000000    39.44000000    76.35000000
   H    122.73000000    40.77000000    76.08000000
   H    121.37000000    42.83000000    75.72000000
   H    122.24000000    42.96000000    77.23000000
   H    120.11000000    43.48000000    77.33000000
   N    120.86000000    40.01000000    78.71000000
   C    120.91000000    39.34000000    80.00000000
   C    121.65000000    40.15000000    81.05000000
   O    122.58000000    39.74000000    81.74000000
   C    121.29000000    37.86000000    79.96000000
   H    119.99000000    39.96000000    78.21000000
   H    119.85000000    39.20000000    80.20000000
   H    121.26000000    37.37000000    80.93000000
   H    120.61000000    37.33000000    79.29000000
   H    122.32000000    37.68000000    79.64000000
   N    121.17000000    41.39000000    81.18000000
   C    119.87000000    41.92000000    80.85000000
   C    118.82000000    41.29000000    81.76000000
   O    119.14000000    40.95000000    82.89000000
   C    119.98000000    43.44000000    80.97000000
   H    121.65000000    42.08000000    81.74000000
   H    119.61000000    41.82000000    79.79000000
   H    119.00000000    43.85000000    80.76000000
   H    120.32000000    43.77000000    81.95000000
   H    120.61000000    43.82000000    80.16000000
   N    117.60000000    40.94000000    81.35000000
   C    117.02000000    41.11000000    80.03000000
   C    115.98000000    40.09000000    79.61000000
   O    116.07000000    39.51000000    78.52000000
   C    116.48000000    42.51000000    79.75000000
   C    116.77000000    43.09000000    78.37000000
   C    116.38000000    44.56000000    78.36000000
   O    115.17000000    44.84000000    78.55000000
   O    117.28000000    45.34000000    78.00000000
   H    116.93000000    40.63000000    82.04000000
   H    117.86000000    41.01000000    79.35000000
   H    116.92000000    43.25000000    80.42000000
   H    115.41000000    42.53000000    79.92000000
   H    116.17000000    42.63000000    77.58000000
   H    117.82000000    42.95000000    78.13000000
   N    114.99000000    39.88000000    80.49000000
   C    113.91000000    38.92000000    80.36000000
   H    113.05000000    39.40200000    79.89600000
   H    114.23700000    38.08600000    79.73900000
   H    113.63000000    38.55100000    81.34700000
   H    115.06000000    40.36000000    81.37000000
  Ca    119.93700000    43.39000000    70.25000000
   O    120.85700000    43.44000000    72.81000000
   H    120.57700000    44.16000000    73.37000000
   H    120.98700000    42.71000000    73.41000000
   O    118.29700000    44.68000000    71.95000000
   H    118.72700000    45.49000000    72.24000000
   H    117.37700000    44.92000000    71.85000000
   O    122.57700000    42.37000000    69.83000000
   H    122.99700000    41.51000000    69.92000000
   H    123.25700000    42.94000000    69.48000000

Ca 1.00



