%chk=loop1.holoCaM-CaMKII.run56.water2.chk
%nprocshared=20
%mem=10GB
%nosave
#b3lyp/svp scf=(tight,noincore,xqc) Test 
#IOP(5/87=12) Density=Current Pop=(MK,readradii) iop(6/33=2) iop(6/42=6)

loop1.holoCaM-CaMKII.run56.water2 

   0  1 
   C     15.17000000    66.41000000    17.56000000
   C     14.65000000    67.64000000    16.84000000
   O     14.13000000    67.52000000    15.74000000
   H     16.09200000    66.65900000    18.08400000
   H     14.42600000    66.06700000    18.27900000
   H     15.36700000    65.62000000    16.83500000
   N     14.78000000    68.80000000    17.50000000
   C     14.20000000    70.07000000    17.14000000
   C     14.83000000    70.77000000    15.94000000
   O     15.64000000    71.68000000    16.12000000
   C     14.09000000    70.98000000    18.36000000
   C     13.30000000    72.26000000    18.16000000
   O     13.51000000    73.27000000    18.88000000
   O     12.54000000    72.34000000    17.18000000
   H     15.25000000    68.87000000    18.39000000
   H     13.15000000    69.90000000    16.92000000
   H     15.09000000    71.23000000    18.73000000
   H     13.42000000    70.53000000    19.10000000
   N     14.55000000    70.31000000    14.72000000
   C     15.30000000    70.64000000    13.53000000
   C     14.85000000    71.96000000    12.92000000
   O     15.64000000    72.50000000    12.15000000
   C     15.37000000    69.45000000    12.57000000
   C     16.28000000    68.32000000    13.04000000
   C     17.76000000    68.67000000    12.98000000
   C     18.60000000    67.51000000    13.52000000
   N     20.03000000    67.86000000    13.48000000
   H     13.87000000    69.56000000    14.71000000
   H     16.32000000    70.88000000    13.82000000
   H     15.76000000    69.73000000    11.59000000
   H     14.33000000    69.13000000    12.44000000
   H     16.25000000    67.47000000    12.37000000
   H     16.05000000    68.13000000    14.09000000
   H     18.08000000    69.56000000    13.52000000
   H     18.07000000    68.70000000    11.93000000
   H     18.49000000    66.56000000    12.99000000
   H     18.44000000    67.28000000    14.57000000
   H     20.32000000    68.50000000    14.20000000
   H     20.64000000    67.06000000    13.56000000
   H     20.23000000    68.39000000    12.64000000
   N     13.67000000    72.54000000    13.17000000
   C     13.24000000    73.84000000    12.70000000
   C     13.34000000    74.89000000    13.79000000
   O     13.20000000    76.08000000    13.53000000
   C     11.83000000    73.77000000    12.11000000
   C     10.73000000    73.07000000    12.90000000
   O      9.62000000    72.91000000    12.35000000
   O     11.01000000    72.54000000    14.00000000
   H     12.97000000    71.92000000    13.56000000
   H     13.92000000    74.15000000    11.91000000
   H     11.90000000    73.26000000    11.15000000
   H     11.47000000    74.77000000    11.88000000
   N     13.67000000    74.45000000    15.01000000
   C     13.90000000    75.35000000    16.12000000
   C     12.70000000    76.12000000    16.66000000
   O     12.38000000    77.19000000    16.15000000
   H     13.69000000    73.46000000    15.21000000
   H     14.63000000    76.08000000    15.78000000
   H     14.29000000    74.83000000    17.00000000
   N     12.09000000    75.53000000    17.69000000
   C     11.11000000    76.30000000    18.43000000
   C     11.22000000    76.13000000    19.94000000
   O     10.58000000    76.79000000    20.75000000
   C      9.72000000    75.97000000    17.92000000
   C      9.51000000    74.53000000    17.44000000
   O      9.65000000    73.61000000    18.27000000
   O      9.29000000    74.25000000    16.24000000
   H     12.43000000    74.59000000    17.88000000
   H     11.27000000    77.37000000    18.44000000
   H      9.54000000    76.70000000    17.13000000
   H      8.98000000    76.10000000    18.71000000
   N     12.09000000    75.23000000    20.39000000
   C     12.27000000    74.71000000    21.74000000
   C     11.43000000    73.49000000    22.08000000
   O     11.31000000    73.26000000    23.28000000
   H     12.66000000    74.80000000    19.68000000
   H     12.05000000    75.51000000    22.44000000
   H     13.32000000    74.50000000    21.94000000
   N     10.82000000    72.81000000    21.11000000
   C      9.76000000    71.82000000    21.24000000
   C      9.84000000    70.72000000    20.20000000
   O     10.45000000    70.90000000    19.15000000
   C      8.32000000    72.31000000    21.20000000
   C      8.13000000    73.38000000    22.27000000
   O      7.96000000    72.95000000    19.99000000
   H     10.95000000    73.10000000    20.15000000
   H      9.95000000    71.44000000    22.24000000
   H      7.63000000    71.49000000    21.40000000
   H      8.78000000    73.20000000    19.57000000
   H      8.69000000    73.01000000    23.13000000
   H      8.47000000    74.38000000    22.00000000
   H      7.06000000    73.41000000    22.43000000
   N      9.16000000    69.59000000    20.40000000
   C      9.30000000    68.38000000    19.61000000
   C      7.95000000    67.77000000    19.30000000
   O      7.26000000    67.29000000    20.20000000
   C     10.15000000    67.37000000    20.38000000
   C     11.49000000    67.90000000    20.90000000
   C     10.36000000    66.13000000    19.52000000
   C     12.11000000    66.92000000    21.89000000
   H      8.75000000    69.46000000    21.32000000
   H      9.81000000    68.58000000    18.67000000
   H      9.63000000    67.05000000    21.28000000
   H     11.39000000    68.91000000    21.30000000
   H     12.17000000    68.03000000    20.05000000
   H     10.66000000    65.36000000    20.23000000
   H      9.52000000    65.70000000    18.97000000
   H     11.14000000    66.37000000    18.80000000
   H     12.97000000    67.44000000    22.32000000
   H     11.31000000    66.82000000    22.62000000
   H     12.36000000    65.96000000    21.45000000
   N      7.63000000    67.59000000    18.01000000
   C      6.45000000    67.06000000    17.37000000
   C      6.51000000    65.54000000    17.22000000
   O      7.57000000    64.93000000    17.18000000
   C      6.24000000    67.62000000    15.96000000
   C      5.81000000    69.08000000    16.00000000
   O      7.43000000    67.50000000    15.22000000
   H      8.40000000    67.94000000    17.45000000
   H      5.65000000    67.36000000    18.04000000
   H      5.52000000    66.94000000    15.50000000
   H      8.11000000    68.01000000    15.66000000
   H      4.92000000    69.20000000    16.61000000
   H      6.65000000    69.66000000    16.38000000
   H      5.64000000    69.32000000    14.95000000
   N      5.36000000    64.93000000    16.91000000
   C      5.16000000    63.61000000    16.36000000
   C      6.18000000    63.39000000    15.25000000
   O      6.90000000    62.40000000    15.20000000
   C      3.77000000    63.36000000    15.79000000
   C      2.71000000    62.92000000    16.79000000
   O      3.28000000    64.47000000    15.07000000
   H      4.58000000    65.55000000    17.12000000
   H      5.46000000    62.82000000    17.06000000
   H      3.83000000    62.58000000    15.02000000
   H      2.35000000    64.54000000    15.29000000
   H      2.97000000    61.90000000    17.07000000
   H      2.72000000    63.50000000    17.71000000
   H      1.70000000    62.81000000    16.40000000
   N      6.24000000    64.36000000    14.33000000
   C      7.11000000    64.38000000    13.18000000
   C      8.58000000    64.22000000    13.54000000
   O      9.23000000    63.43000000    12.86000000
   C      6.81000000    65.59000000    12.30000000
   C      7.70000000    65.59000000    11.06000000
   C      7.42000000    66.77000000    10.13000000
   C      8.25000000    66.64000000     8.85000000
   N      7.69000000    65.62000000     7.95000000
   H      5.50000000    65.05000000    14.42000000
   H      6.97000000    63.47000000    12.59000000
   H      7.06000000    66.49000000    12.86000000
   H      5.75000000    65.65000000    12.04000000
   H      7.44000000    64.68000000    10.51000000
   H      8.75000000    65.59000000    11.35000000
   H      7.54000000    67.72000000    10.65000000
   H      6.37000000    66.79000000     9.84000000
   H      9.27000000    66.32000000     9.07000000
   H      8.26000000    67.60000000     8.33000000
   H      7.98000000    65.77000000     6.99000000
   H      8.15000000    64.75000000     8.17000000
   H      6.69000000    65.49000000     8.03000000
   N      9.17000000    65.02000000    14.43000000
   C     10.53000000    64.98000000    14.91000000
   C     10.85000000    63.70000000    15.66000000
   O     11.77000000    62.99000000    15.24000000
   C     10.75000000    66.28000000    15.70000000
   C     10.73000000    67.47000000    14.75000000
   C     10.48000000    68.74000000    15.56000000
   O     11.26000000    69.67000000    15.27000000
   O      9.41000000    69.01000000    16.16000000
   H      8.55000000    65.63000000    14.95000000
   H     11.12000000    65.14000000    14.01000000
   H     11.72000000    66.07000000    16.15000000
   H     10.06000000    66.29000000    16.55000000
   H      9.96000000    67.43000000    13.99000000
   H     11.70000000    67.52000000    14.26000000
   N     10.01000000    63.25000000    16.60000000
   C     10.11000000    62.09000000    17.45000000
   H     10.76300000    62.31400000    18.29400000
   H      9.12000000    61.82200000    17.81800000
   H     10.52400000    61.25700000    16.88200000
   H      9.34000000    63.96000000    16.88000000
  Ca     10.10000000    71.67000000    16.41000000
   O      7.82000000    71.26000000    17.95000000
   H      6.94000000    70.88000000    17.94000000
   H      7.78000000    71.95000000    18.61000000
   O      7.78000000    71.57000000    14.80000000
   H      6.85000000    71.36000000    14.67000000
   H      8.12000000    71.68000000    13.91000000

Ca 1.00



