%chk=loop3.apoCaM-CA-Ng.Init31.run41.water6.chk
%nprocshared=20
%mem=10GB
%nosave
#b3lyp/svp scf=(tight,noincore,xqc) Test 
#IOP(5/87=12) Density=Current Pop=(MK,readradii) iop(6/33=2) iop(6/42=6)

loop3.apoCaM-CA-Ng.Init31.run41.water6 

   0  1 
   C    112.31000000    39.49000000    12.63000000
   C    113.18000000    40.66000000    13.07000000
   O    112.92000000    41.84000000    12.86000000
   H    111.38700000    39.86900000    12.19100000
   H    112.84600000    38.89600000    11.89000000
   H    112.07200000    38.86800000    13.49300000
   N    114.19000000    40.28000000    13.87000000
   C    115.18000000    41.12000000    14.50000000
   C    116.54000000    40.97000000    13.82000000
   O    116.86000000    40.00000000    13.13000000
   C    115.12000000    41.12000000    16.03000000
   C    115.31000000    39.82000000    16.78000000
   O    115.21000000    39.82000000    18.03000000
   O    115.69000000    38.83000000    16.12000000
   H    114.36000000    39.29000000    13.89000000
   H    114.96000000    42.16000000    14.26000000
   H    114.17000000    41.55000000    16.32000000
   H    115.95000000    41.74000000    16.37000000
   N    117.39000000    42.00000000    13.87000000
   C    118.78000000    42.01000000    13.46000000
   C    118.95000000    41.78000000    11.96000000
   O    119.76000000    40.95000000    11.55000000
   C    119.37000000    43.34000000    13.91000000
   C    119.81000000    43.30000000    15.37000000
   C    120.41000000    44.61000000    15.89000000
   C    120.68000000    44.49000000    17.39000000
   N    122.00000000    45.06000000    17.69000000
   H    117.04000000    42.79000000    14.39000000
   H    119.26000000    41.17000000    13.96000000
   H    118.49000000    43.97000000    13.85000000
   H    120.20000000    43.67000000    13.29000000
   H    120.52000000    42.50000000    15.61000000
   H    118.86000000    43.13000000    15.87000000
   H    119.81000000    45.50000000    15.69000000
   H    121.31000000    44.70000000    15.28000000
   H    120.67000000    43.45000000    17.70000000
   H    119.82000000    45.03000000    17.79000000
   H    122.78000000    44.75000000    17.13000000
   H    121.94000000    46.04000000    17.47000000
   H    122.26000000    45.01000000    18.67000000
   N    118.20000000    42.46000000    11.09000000
   C    118.11000000    42.19000000     9.67000000
   C    118.33000000    43.41000000     8.79000000
   O    119.09000000    43.33000000     7.83000000
   C    116.76000000    41.52000000     9.42000000
   C    115.58000000    42.07000000    10.21000000
   O    114.50000000    41.45000000    10.26000000
   O    115.59000000    43.19000000    10.77000000
   H    117.45000000    43.07000000    11.38000000
   H    118.87000000    41.47000000     9.36000000
   H    116.87000000    40.55000000     9.92000000
   H    116.46000000    41.36000000     8.39000000
   N    117.58000000    44.47000000     9.10000000
   C    117.45000000    45.59000000     8.18000000
   C    118.74000000    46.36000000     8.00000000
   O    119.83000000    46.07000000     8.51000000
   H    117.09000000    44.60000000     9.97000000
   H    116.75000000    46.33000000     8.58000000
   H    117.02000000    45.29000000     7.22000000
   N    118.79000000    47.49000000     7.29000000
   C    117.63000000    48.21000000     6.81000000
   C    116.85000000    48.69000000     8.03000000
   O    117.45000000    49.18000000     8.99000000
   C    118.09000000    49.30000000     5.85000000
   C    119.05000000    48.87000000     4.76000000
   N    118.45000000    48.18000000     3.78000000
   O    120.27000000    48.86000000     4.90000000
   H    119.61000000    48.05000000     7.48000000
   H    117.00000000    47.51000000     6.25000000
   H    118.64000000    49.99000000     6.49000000
   H    117.23000000    49.82000000     5.42000000
   H    117.45000000    48.16000000     3.65000000
   H    118.97000000    47.74000000     3.03000000
   N    115.53000000    48.85000000     8.00000000
   C    114.72000000    48.70000000     6.81000000
   C    114.01000000    47.35000000     6.81000000
   O    114.63000000    46.32000000     7.09000000
   H    115.13000000    49.44000000     8.72000000
   H    115.35000000    48.84000000     5.93000000
   H    113.91000000    49.43000000     6.73000000
   N    112.75000000    47.29000000     6.38000000
   C    112.15000000    46.20000000     5.63000000
   C    112.88000000    45.97000000     4.32000000
   O    112.92000000    46.81000000     3.42000000
   C    110.68000000    46.61000000     5.53000000
   C    109.91000000    46.53000000     6.82000000
   C    109.44000000    45.29000000     7.29000000
   C    109.54000000    47.69000000     7.51000000
   C    108.59000000    45.19000000     8.39000000
   C    108.78000000    47.55000000     8.68000000
   C    108.25000000    46.33000000     9.14000000
   O    107.42000000    46.21000000    10.21000000
   H    112.39000000    48.21000000     6.17000000
   H    112.23000000    45.27000000     6.20000000
   H    110.13000000    45.93000000     4.87000000
   H    110.58000000    47.56000000     5.01000000
   H    109.53000000    44.40000000     6.69000000
   H    109.85000000    48.65000000     7.11000000
   H    108.16000000    44.23000000     8.65000000
   H    108.56000000    48.40000000     9.31000000
   H    107.21000000    47.08000000    10.54000000
   N    113.47000000    44.78000000     4.22000000
   C    114.09000000    44.25000000     3.02000000
   C    113.15000000    43.80000000     1.91000000
   O    113.65000000    43.72000000     0.79000000
   C    115.12000000    43.21000000     3.43000000
   C    116.20000000    43.74000000     4.37000000
   C    114.50000000    41.98000000     4.09000000
   C    117.20000000    44.78000000     3.89000000
   H    113.63000000    44.21000000     5.04000000
   H    114.71000000    45.02000000     2.56000000
   H    115.67000000    42.84000000     2.57000000
   H    116.80000000    42.86000000     4.62000000
   H    115.68000000    44.14000000     5.24000000
   H    115.22000000    41.24000000     4.45000000
   H    114.05000000    42.32000000     5.02000000
   H    113.71000000    41.59000000     3.45000000
   H    117.82000000    44.36000000     3.10000000
   H    116.68000000    45.66000000     3.50000000
   H    117.90000000    45.02000000     4.69000000
   N    111.86000000    43.56000000     2.16000000
   C    110.89000000    43.40000000     1.10000000
   C    110.88000000    41.96000000     0.61000000
   O    110.21000000    41.64000000    -0.37000000
   C    109.53000000    43.78000000     1.67000000
   O    109.01000000    42.84000000     2.58000000
   H    111.56000000    43.50000000     3.12000000
   H    111.10000000    44.08000000     0.27000000
   H    108.88000000    44.00000000     0.82000000
   H    109.70000000    44.73000000     2.16000000
   H    109.62000000    42.98000000     3.31000000
   N    111.46000000    41.00000000     1.34000000
   C    111.35000000    39.58000000     1.07000000
   C    111.31000000    38.71000000     2.31000000
   O    112.20000000    38.77000000     3.15000000
   C    112.54000000    39.21000000     0.19000000
   H    111.92000000    41.28000000     2.19000000
   H    110.43000000    39.40000000     0.51000000
   H    112.53000000    39.89000000    -0.66000000
   H    113.42000000    39.36000000     0.82000000
   H    112.43000000    38.21000000    -0.23000000
   N    110.22000000    37.94000000     2.38000000
   C    110.04000000    36.87000000     3.33000000
   C    109.69000000    37.23000000     4.76000000
   O    109.87000000    36.38000000     5.64000000
   C    111.20000000    35.89000000     3.23000000
   H    109.61000000    37.95000000     1.57000000
   H    109.16000000    36.28000000     3.04000000
   H    110.73000000    34.91000000     3.25000000
   H    111.69000000    35.97000000     2.25000000
   H    111.92000000    36.10000000     4.02000000
   N    109.28000000    38.48000000     5.01000000
   C    109.19000000    39.11000000     6.31000000
   C    107.80000000    39.63000000     6.64000000
   O    107.46000000    39.80000000     7.81000000
   C    110.23000000    40.22000000     6.41000000
   C    109.88000000    41.46000000     5.60000000
   C    110.98000000    42.51000000     5.67000000
   O    111.74000000    42.69000000     6.65000000
   O    111.00000000    43.27000000     4.68000000
   H    109.10000000    39.09000000     4.23000000
   H    109.46000000    38.32000000     7.02000000
   H    111.17000000    39.77000000     6.09000000
   H    110.47000000    40.43000000     7.46000000
   H    108.97000000    41.92000000     5.97000000
   H    109.70000000    41.16000000     4.57000000
   N    106.93000000    39.82000000     5.65000000
   C    105.50000000    40.05000000     5.78000000
   H    104.96700000    39.10800000     5.64600000
   H    105.28400000    40.45100000     6.77100000
   H    105.17500000    40.76200000     5.02100000
   H    107.31000000    39.71000000     4.72000000
  Ca    112.98800000    43.71000000    10.83000000
   O    111.19800000    42.48000000     9.26000000
   H    111.45800000    42.44000000     8.35000000
   H    110.25800000    42.29000000     9.25000000
   O    113.26800000    43.95000000     8.15000000
   H    113.95800000    44.47000000     7.74000000
   H    112.77800000    43.57000000     7.42000000
   O    110.90800000    45.48000000    10.02000000
   H    110.17800000    45.73000000    10.59000000
   H    110.54800000    45.56000000     9.13000000
   O    110.65800000    43.46000000    12.20000000
   H    109.84800000    42.95000000    12.27000000
   H    110.45800000    44.29000000    12.63000000
   O    114.11800000    46.10000000    10.70000000
   H    114.41800000    46.54000000     9.91000000
   H    114.38800000    46.67000000    11.41000000
   O    113.48800000    44.75000000    13.20000000
   H    114.28800000    45.10000000    13.60000000
   H    112.78800000    45.05000000    13.78000000

Ca 1.00



