%chk=loop4.holoCaM.run7.water2.chk
%nprocshared=20
%mem=10GB
%nosave
#b3lyp/svp scf=(tight,noincore,xqc) Test 
#IOP(5/87=12) Density=Current Pop=(MK,readradii) iop(6/33=2) iop(6/42=6)

loop4.holoCaM.run7.water2 

   -3  1 
   C     31.44000000    26.62000000    39.08000000
   C     32.46000000    25.67000000    39.69000000
   O     33.03000000    24.92000000    38.90000000
   H     30.55900000    26.66600000    39.72000000
   H     31.87700000    27.61500000    38.99100000
   H     31.15200000    26.26000000    38.09200000
   N     32.65000000    25.75000000    41.01000000
   C     33.48000000    24.85000000    41.78000000
   C     33.17000000    23.39000000    41.52000000
   O     32.01000000    22.98000000    41.52000000
   C     33.24000000    25.09000000    43.27000000
   C     34.15000000    24.36000000    44.24000000
   O     35.20000000    23.78000000    43.88000000
   O     33.83000000    24.28000000    45.44000000
   H     32.09000000    26.35000000    41.60000000
   H     34.56000000    24.97000000    41.65000000
   H     32.17000000    25.05000000    43.49000000
   H     33.46000000    26.14000000    43.47000000
   N     34.20000000    22.55000000    41.35000000
   C     34.11000000    21.18000000    40.90000000
   C     34.42000000    20.21000000    42.04000000
   O     34.08000000    19.04000000    41.91000000
   C     35.03000000    20.93000000    39.71000000
   C     34.37000000    21.61000000    38.52000000
   C     35.33000000    19.51000000    39.25000000
   C     34.96000000    21.53000000    37.12000000
   H     35.13000000    22.94000000    41.35000000
   H     33.11000000    21.01000000    40.51000000
   H     35.95000000    21.36000000    40.12000000
   H     34.34000000    22.67000000    38.75000000
   H     33.31000000    21.35000000    38.54000000
   H     35.62000000    18.83000000    40.05000000
   H     34.44000000    19.16000000    38.74000000
   H     36.15000000    19.51000000    38.52000000
   H     34.19000000    21.93000000    36.46000000
   H     35.97000000    21.95000000    37.17000000
   H     35.21000000    20.54000000    36.74000000
   N     34.80000000    20.73000000    43.21000000
   C     35.38000000    19.90000000    44.26000000
   C     34.90000000    20.15000000    45.68000000
   O     35.01000000    19.24000000    46.50000000
   C     36.90000000    19.86000000    44.15000000
   C     37.53000000    21.24000000    44.10000000
   O     37.81000000    21.71000000    42.97000000
   O     37.64000000    21.90000000    45.15000000
   H     34.94000000    21.72000000    43.33000000
   H     34.94000000    18.92000000    44.05000000
   H     37.10000000    19.34000000    43.21000000
   H     37.32000000    19.20000000    44.92000000
   N     34.39000000    21.33000000    46.06000000
   C     33.78000000    21.49000000    47.36000000
   C     34.51000000    22.40000000    48.33000000
   O     34.40000000    22.27000000    49.55000000
   H     34.26000000    22.05000000    45.36000000
   H     33.68000000    20.51000000    47.83000000
   H     32.74000000    21.84000000    47.35000000
   N     35.17000000    23.44000000    47.82000000
   C     35.91000000    24.41000000    48.60000000
   C     35.44000000    25.84000000    48.39000000
   O     35.96000000    26.77000000    49.01000000
   C     37.39000000    24.24000000    48.26000000
   C     37.83000000    24.58000000    46.85000000
   O     37.01000000    25.01000000    46.00000000
   O     38.99000000    24.44000000    46.42000000
   H     35.11000000    23.51000000    46.81000000
   H     35.79000000    24.15000000    49.66000000
   H     37.54000000    23.17000000    48.39000000
   H     38.01000000    24.72000000    49.03000000
   N     34.57000000    26.08000000    47.41000000
   C     33.89000000    27.33000000    47.14000000
   C     34.75000000    28.34000000    46.39000000
   O     34.50000000    29.55000000    46.35000000
   H     34.39000000    25.33000000    46.76000000
   H     33.46000000    27.80000000    48.02000000
   H     33.03000000    27.21000000    46.48000000
   N     35.84000000    27.88000000    45.78000000
   C     36.80000000    28.64000000    45.01000000
   C     36.88000000    28.02000000    43.62000000
   O     36.69000000    26.82000000    43.44000000
   C     38.12000000    28.79000000    45.76000000
   C     38.01000000    29.71000000    46.98000000
   C     39.39000000    30.11000000    47.49000000
   N     40.04000000    29.32000000    48.34000000
   O     39.92000000    31.18000000    47.21000000
   H     36.04000000    26.94000000    46.07000000
   H     36.44000000    29.65000000    44.81000000
   H     38.84000000    29.16000000    45.03000000
   H     38.44000000    27.82000000    46.15000000
   H     37.37000000    29.29000000    47.76000000
   H     37.41000000    30.58000000    46.70000000
   H     39.61000000    28.45000000    48.59000000
   H     41.01000000    29.44000000    48.61000000
   N     37.41000000    28.76000000    42.63000000
   C     37.75000000    28.19000000    41.34000000
   C     39.22000000    28.51000000    41.17000000
   O     39.64000000    29.66000000    41.27000000
   C     36.99000000    28.83000000    40.18000000
   C     35.52000000    28.43000000    40.18000000
   C     37.09000000    30.34000000    40.01000000
   H     37.68000000    29.70000000    42.89000000
   H     37.68000000    27.10000000    41.38000000
   H     37.35000000    28.39000000    39.24000000
   H     35.43000000    27.34000000    40.16000000
   H     35.16000000    28.80000000    41.14000000
   H     34.99000000    28.84000000    39.32000000
   H     38.11000000    30.59000000    39.73000000
   H     36.31000000    30.65000000    39.32000000
   H     36.87000000    30.69000000    41.02000000
   N     39.99000000    27.43000000    41.00000000
   C     41.30000000    27.58000000    40.39000000
   C     41.29000000    27.58000000    38.87000000
   O     40.22000000    27.49000000    38.27000000
   C     42.10000000    26.45000000    41.05000000
   C     42.15000000    25.16000000    40.25000000
   N     41.09000000    24.35000000    40.27000000
   O     43.10000000    24.88000000    39.52000000
   H     39.48000000    26.57000000    40.90000000
   H     41.73000000    28.52000000    40.72000000
   H     41.63000000    26.24000000    42.01000000
   H     43.12000000    26.78000000    41.21000000
   H     40.23000000    24.60000000    40.75000000
   H     41.13000000    23.41000000    39.92000000
   N     42.46000000    27.78000000    38.25000000
   C     42.51000000    27.95000000    36.81000000
   C     42.04000000    26.74000000    36.02000000
   O     41.33000000    26.89000000    35.03000000
   C     43.92000000    28.39000000    36.43000000
   C     44.21000000    28.62000000    34.97000000
   C     44.15000000    29.93000000    34.46000000
   C     44.59000000    27.57000000    34.13000000
   C     44.30000000    30.22000000    33.10000000
   C     44.72000000    27.86000000    32.76000000
   C     44.67000000    29.17000000    32.24000000
   O     44.82000000    29.50000000    30.93000000
   H     43.28000000    27.70000000    38.83000000
   H     41.94000000    28.82000000    36.48000000
   H     44.63000000    27.71000000    36.90000000
   H     44.00000000    29.31000000    37.02000000
   H     43.79000000    30.69000000    35.13000000
   H     44.76000000    26.64000000    34.65000000
   H     44.33000000    31.24000000    32.75000000
   H     44.92000000    27.07000000    32.06000000
   H     45.00000000    28.76000000    30.34000000
   N     42.30000000    25.51000000    36.46000000
   C     41.74000000    24.31000000    35.85000000
   C     40.22000000    24.21000000    35.97000000
   O     39.58000000    23.39000000    35.32000000
   C     42.42000000    23.07000000    36.40000000
   C     42.37000000    21.97000000    35.35000000
   C     43.22000000    20.79000000    35.80000000
   O     44.38000000    20.67000000    35.33000000
   O     42.75000000    19.95000000    36.60000000
   H     43.02000000    25.35000000    37.15000000
   H     41.88000000    24.37000000    34.77000000
   H     41.85000000    22.84000000    37.30000000
   H     43.48000000    23.27000000    36.58000000
   H     42.79000000    22.38000000    34.43000000
   H     41.36000000    21.59000000    35.18000000
   N     39.57000000    25.02000000    36.81000000
   C     38.14000000    25.23000000    36.93000000
   C     37.64000000    26.47000000    36.21000000
   O     36.54000000    26.52000000    35.66000000
   C     37.70000000    25.38000000    38.38000000
   C     37.86000000    24.07000000    39.14000000
   C     37.64000000    24.28000000    40.63000000
   O     38.53000000    24.89000000    41.27000000
   O     36.59000000    23.96000000    41.21000000
   H     40.16000000    25.54000000    37.44000000
   H     37.59000000    24.36000000    36.55000000
   H     36.67000000    25.71000000    38.55000000
   H     38.33000000    26.12000000    38.88000000
   H     38.88000000    23.68000000    39.06000000
   H     37.21000000    23.24000000    38.87000000
   N     38.54000000    27.46000000    36.14000000
   C     38.38000000    28.66000000    35.36000000
   H     37.61000000    29.28600000    35.81100000
   H     39.32300000    29.20600000    35.33500000
   H     38.08500000    28.39700000    34.34400000
   H     39.44000000    27.40000000    36.60000000
  Ca     37.71000000    24.23000000    43.71000000
   O     39.61000000    26.09000000    44.14000000
   H     39.72000000    25.77000000    45.03000000
   H     40.39000000    25.79000000    43.68000000
   O     40.32000000    23.40000000    43.54000000
   H     40.52000000    23.03000000    44.39000000
   H     40.82000000    22.87000000    42.92000000

Ca 1.00



