%chk=loop1.apoCaM-CA-Ng.Init295.run66.water5.chk
%nprocshared=20
%mem=10GB
%nosave
#b3lyp/svp scf=(tight,noincore,xqc) Test 
#IOP(5/87=12) Density=Current Pop=(MK,readradii) iop(6/33=2) iop(6/42=6)

loop1.apoCaM-CA-Ng.Init295.run66.water5 

   0  1 
   C     85.63000000    96.38000000    47.13000000
   C     84.36000000    96.99000000    46.55000000
   O     83.22000000    96.62000000    46.80000000
   H     86.40300000    97.14500000    47.19500000
   H     85.42300000    95.98800000    48.12600000
   H     85.97300000    95.57200000    46.48400000
   N     84.47000000    98.08000000    45.80000000
   C     83.40000000    98.79000000    45.13000000
   C     82.98000000    98.26000000    43.77000000
   O     83.71000000    97.48000000    43.16000000
   C     83.78000000   100.26000000    45.01000000
   C     84.23000000   100.97000000    46.28000000
   O     85.25000000   100.66000000    46.92000000
   O     83.53000000   101.89000000    46.75000000
   H     85.37000000    98.44000000    45.48000000
   H     82.47000000    98.79000000    45.71000000
   H     82.96000000   100.85000000    44.59000000
   H     84.57000000   100.32000000    44.25000000
   N     81.85000000    98.70000000    43.23000000
   C     81.46000000    98.51000000    41.85000000
   C     81.70000000    99.82000000    41.11000000
   O     81.69000000    99.69000000    39.89000000
   C     79.97000000    98.17000000    41.73000000
   C     79.69000000    96.87000000    42.48000000
   C     78.20000000    96.76000000    42.81000000
   C     78.04000000    95.71000000    43.90000000
   N     76.67000000    95.18000000    43.95000000
   H     81.30000000    99.26000000    43.87000000
   H     82.07000000    97.79000000    41.32000000
   H     79.67000000    98.17000000    40.69000000
   H     79.35000000    98.90000000    42.24000000
   H     80.40000000    96.78000000    43.30000000
   H     79.88000000    96.09000000    41.74000000
   H     77.54000000    96.45000000    42.00000000
   H     77.89000000    97.69000000    43.27000000
   H     78.35000000    96.10000000    44.87000000
   H     78.69000000    94.87000000    43.64000000
   H     76.82000000    94.24000000    44.29000000
   H     76.07000000    95.61000000    44.64000000
   H     76.25000000    95.21000000    43.03000000
   N     81.84000000   100.99000000    41.75000000
   C     82.26000000   102.23000000    41.13000000
   C     82.77000000   103.23000000    42.16000000
   O     82.20000000   103.57000000    43.19000000
   C     81.04000000   102.81000000    40.42000000
   C     81.39000000   104.01000000    39.54000000
   O     80.46000000   104.55000000    38.91000000
   O     82.58000000   104.34000000    39.35000000
   H     81.61000000   101.00000000    42.73000000
   H     83.03000000   102.05000000    40.38000000
   H     80.29000000   103.13000000    41.14000000
   H     80.65000000   102.02000000    39.79000000
   N     83.93000000   103.79000000    41.81000000
   C     84.55000000   104.88000000    42.54000000
   C     85.27000000   105.91000000    41.68000000
   O     85.84000000   105.52000000    40.66000000
   H     84.34000000   103.47000000    40.94000000
   H     85.37000000   104.57000000    43.18000000
   H     83.88000000   105.43000000    43.20000000
   N     85.26000000   107.19000000    42.04000000
   C     85.91000000   108.19000000    41.21000000
   C     86.72000000   109.25000000    41.95000000
   O     86.21000000   109.91000000    42.85000000
   C     84.82000000   108.79000000    40.34000000
   C     83.92000000   107.77000000    39.65000000
   O     84.25000000   107.23000000    38.57000000
   O     82.76000000   107.52000000    40.03000000
   H     84.83000000   107.49000000    42.91000000
   H     86.67000000   107.73000000    40.58000000
   H     85.21000000   109.30000000    39.46000000
   H     84.19000000   109.41000000    40.99000000
   N     87.98000000   109.40000000    41.56000000
   C     88.93000000   110.07000000    42.43000000
   C     89.37000000   109.16000000    43.56000000
   O     88.79000000   108.10000000    43.79000000
   H     88.34000000   108.92000000    40.75000000
   H     88.43000000   110.90000000    42.94000000
   H     89.83000000   110.21000000    41.83000000
   N     90.39000000   109.63000000    44.29000000
   C     91.14000000   109.00000000    45.35000000
   C     92.64000000   108.99000000    45.05000000
   O     93.19000000   109.84000000    44.36000000
   C     90.90000000   109.67000000    46.70000000
   C     89.46000000   109.42000000    47.15000000
   O     91.69000000   109.30000000    47.81000000
   H     90.86000000   110.46000000    43.95000000
   H     90.90000000   107.95000000    45.49000000
   H     90.91000000   110.75000000    46.54000000
   H     91.64000000   108.34000000    47.82000000
   H     89.25000000   109.89000000    48.11000000
   H     88.73000000   110.00000000    46.59000000
   H     89.13000000   108.39000000    47.05000000
   N     93.26000000   107.92000000    45.54000000
   C     94.68000000   107.74000000    45.38000000
   C     95.16000000   107.44000000    43.97000000
   O     96.31000000   107.72000000    43.63000000
   C     95.22000000   106.78000000    46.44000000
   C     94.46000000   105.46000000    46.34000000
   C     95.17000000   107.45000000    47.81000000
   C     94.90000000   104.55000000    47.48000000
   H     92.75000000   107.18000000    46.00000000
   H     95.00000000   108.76000000    45.57000000
   H     96.23000000   106.46000000    46.18000000
   H     94.57000000   105.06000000    45.33000000
   H     93.40000000   105.64000000    46.52000000
   H     94.18000000   107.26000000    48.22000000
   H     95.91000000   106.94000000    48.42000000
   H     95.45000000   108.50000000    47.83000000
   H     95.98000000   104.51000000    47.61000000
   H     94.32000000   104.84000000    48.35000000
   H     94.51000000   103.57000000    47.20000000
   N     94.32000000   106.81000000    43.13000000
   C     94.46000000   106.71000000    41.69000000
   C     95.58000000   105.75000000    41.30000000
   O     95.56000000   104.56000000    41.61000000
   C     93.13000000   106.39000000    41.02000000
   C     91.97000000   107.29000000    41.45000000
   O     93.40000000   106.58000000    39.65000000
   H     93.41000000   106.59000000    43.50000000
   H     94.81000000   107.67000000    41.30000000
   H     92.96000000   105.32000000    41.13000000
   H     93.04000000   105.82000000    39.19000000
   H     91.12000000   107.09000000    40.80000000
   H     91.70000000   107.08000000    42.48000000
   H     92.32000000   108.33000000    41.39000000
   N     96.56000000   106.25000000    40.55000000
   C     97.74000000   105.64000000    39.98000000
   C     98.93000000   105.41000000    40.91000000
   O    100.03000000   105.05000000    40.49000000
   C     98.12000000   106.51000000    38.79000000
   C     98.93000000   105.72000000    37.76000000
   O     98.71000000   107.75000000    39.09000000
   H     96.56000000   107.25000000    40.43000000
   H     97.42000000   104.68000000    39.57000000
   H     97.12000000   106.70000000    38.38000000
   H     98.99000000   108.16000000    38.26000000
   H     98.45000000   104.74000000    37.68000000
   H     98.91000000   106.21000000    36.78000000
   H     99.98000000   105.71000000    38.03000000
   N     98.71000000   105.42000000    42.22000000
   C     99.70000000   105.15000000    43.24000000
   C     99.12000000   104.41000000    44.44000000
   O     97.93000000   104.56000000    44.70000000
   C    100.48000000   106.37000000    43.74000000
   C    101.54000000   106.76000000    42.72000000
   C    102.61000000   107.77000000    43.14000000
   C    103.78000000   107.71000000    42.17000000
   N    104.91000000   108.53000000    42.62000000
   H     97.77000000   105.68000000    42.49000000
   H    100.47000000   104.46000000    42.89000000
   H    101.06000000   106.13000000    44.63000000
   H     99.81000000   107.19000000    44.02000000
   H    101.08000000   107.08000000    41.79000000
   H    102.14000000   105.86000000    42.59000000
   H    102.99000000   107.49000000    44.13000000
   H    102.28000000   108.81000000    43.19000000
   H    103.41000000   108.12000000    41.23000000
   H    104.21000000   106.72000000    42.02000000
   H    105.34000000   108.19000000    43.48000000
   H    105.62000000   108.61000000    41.91000000
   H    104.57000000   109.46000000    42.84000000
   N     99.86000000   103.59000000    45.19000000
   C     99.47000000   102.80000000    46.35000000
   C     99.92000000   101.35000000    46.25000000
   O    101.04000000   101.14000000    45.80000000
   C     99.94000000   103.47000000    47.63000000
   C     99.34000000   104.86000000    47.84000000
   C     99.82000000   105.54000000    49.12000000
   O    100.18000000   106.74000000    49.03000000
   O     99.79000000   104.93000000    50.20000000
   H    100.81000000   103.46000000    44.88000000
   H     98.38000000   102.77000000    46.33000000
   H    101.03000000   103.57000000    47.64000000
   H     99.59000000   102.84000000    48.44000000
   H     98.29000000   104.66000000    48.03000000
   H     99.42000000   105.57000000    47.02000000
   N     99.24000000   100.23000000    46.52000000
   C     97.81000000   100.10000000    46.76000000
   H     97.27000000   100.24600000    45.82400000
   H     97.59600000    99.10600000    47.15100000
   H     97.49200000   100.85200000    47.48300000
   H     99.68000000    99.36000000    46.25000000
  Ca     81.99000000   106.35400000    37.69000000
   O     82.48000000   106.76400000    35.09000000
   H     83.15000000   106.98400000    34.44000000
   H     81.66000000   107.06400000    34.70000000
   O     79.78000000   105.66400000    36.35000000
   H     79.09000000   105.22400000    36.85000000
   H     79.84000000   105.15400000    35.54000000
   O     82.68000000   104.26400000    36.23000000
   H     83.53000000   104.14400000    35.82000000
   H     82.33000000   103.37400000    36.32000000
   O     81.90000000   108.99400000    37.20000000
   H     81.67000000   109.85400000    37.55000000
   H     82.55000000   109.18400000    36.51000000
   O     79.62000000   107.28400000    38.64000000
   H     79.32000000   108.06400000    39.10000000
   H     78.82000000   106.90400000    38.27000000

Ca 1.00



