%chk=loop4.apoCaM-CA-Ng.Init295.run55.water3.chk
%nprocshared=20
%mem=10GB
%nosave
#b3lyp/svp scf=(tight,noincore,xqc) Test 
#IOP(5/87=12) Density=Current Pop=(MK,readradii) iop(6/33=2) iop(6/42=6)

loop4.apoCaM-CA-Ng.Init295.run55.water3 

   -3  1 
   C     70.41000000    49.15000000    27.05000000
   C     70.79000000    47.76000000    27.53000000
   O     71.55000000    47.54000000    28.48000000
   H     69.49400000    49.46800000    27.54800000
   H     71.21300000    49.84900000    27.28600000
   H     70.24900000    49.13100000    25.97200000
   N     70.29000000    46.71000000    26.87000000
   C     70.65000000    45.32000000    27.06000000
   C     70.51000000    44.76000000    28.47000000
   O     71.03000000    43.69000000    28.78000000
   C     72.07000000    45.02000000    26.58000000
   C     72.50000000    45.87000000    25.39000000
   O     73.55000000    46.55000000    25.37000000
   O     71.78000000    45.93000000    24.37000000
   H     69.69000000    46.92000000    26.09000000
   H     70.02000000    44.72000000    26.41000000
   H     72.25000000    43.96000000    26.36000000
   H     72.77000000    45.32000000    27.35000000
   N     69.70000000    45.40000000    29.31000000
   C     69.45000000    45.03000000    30.69000000
   C     68.62000000    43.76000000    30.78000000
   O     67.71000000    43.53000000    29.99000000
   C     68.74000000    46.18000000    31.40000000
   C     69.56000000    47.47000000    31.35000000
   C     68.41000000    45.87000000    32.86000000
   C     68.82000000    48.75000000    31.72000000
   H     69.13000000    46.09000000    28.85000000
   H     70.34000000    44.88000000    31.30000000
   H     67.76000000    46.40000000    30.98000000
   H     69.89000000    47.66000000    30.33000000
   H     70.47000000    47.36000000    31.95000000
   H     67.68000000    45.07000000    32.92000000
   H     69.39000000    45.59000000    33.26000000
   H     67.97000000    46.74000000    33.35000000
   H     68.43000000    48.70000000    32.74000000
   H     69.53000000    49.58000000    31.65000000
   H     67.97000000    48.95000000    31.06000000
   N     68.86000000    42.82000000    31.70000000
   C     69.94000000    42.73000000    32.66000000
   C     71.13000000    42.09000000    31.97000000
   O     72.23000000    42.63000000    31.86000000
   C     69.61000000    42.02000000    33.97000000
   C     68.37000000    42.61000000    34.62000000
   O     67.37000000    41.85000000    34.59000000
   O     68.44000000    43.69000000    35.25000000
   H     68.22000000    42.03000000    31.74000000
   H     70.09000000    43.76000000    32.98000000
   H     70.47000000    42.15000000    34.63000000
   H     69.49000000    40.95000000    33.77000000
   N     70.92000000    40.85000000    31.52000000
   C     71.93000000    39.94000000    31.03000000
   C     72.86000000    39.38000000    32.10000000
   O     72.47000000    39.28000000    33.25000000
   H     69.98000000    40.48000000    31.52000000
   H     72.57000000    40.44000000    30.30000000
   H     71.42000000    39.09000000    30.59000000
   N     74.15000000    39.22000000    31.80000000
   C     75.17000000    38.96000000    32.80000000
   C     75.86000000    40.27000000    33.11000000
   O     76.74000000    40.25000000    33.97000000
   C     76.08000000    37.78000000    32.44000000
   C     76.73000000    37.76000000    31.06000000
   O     76.15000000    38.22000000    30.06000000
   O     77.80000000    37.14000000    30.90000000
   H     74.45000000    39.54000000    30.89000000
   H     74.57000000    38.63000000    33.65000000
   H     75.46000000    36.90000000    32.59000000
   H     76.91000000    37.93000000    33.13000000
   N     75.43000000    41.44000000    32.63000000
   C     75.86000000    42.75000000    33.08000000
   C     77.27000000    43.08000000    32.60000000
   O     77.96000000    43.71000000    33.40000000
   H     74.88000000    41.40000000    31.78000000
   H     75.87000000    42.87000000    34.16000000
   H     75.25000000    43.54000000    32.63000000
   N     77.62000000    42.61000000    31.41000000
   C     78.86000000    42.79000000    30.67000000
   C     79.33000000    44.24000000    30.67000000
   O     80.37000000    44.53000000    31.26000000
   C     79.87000000    41.79000000    31.22000000
   C     79.54000000    40.30000000    31.16000000
   C     80.67000000    39.36000000    31.54000000
   N     80.61000000    38.04000000    31.34000000
   O     81.69000000    39.66000000    32.16000000
   H     76.87000000    42.22000000    30.85000000
   H     78.73000000    42.54000000    29.62000000
   H     79.99000000    41.94000000    32.29000000
   H     80.80000000    41.89000000    30.64000000
   H     79.36000000    39.98000000    30.13000000
   H     78.58000000    40.08000000    31.63000000
   H     79.74000000    37.66000000    30.98000000
   H     81.39000000    37.42000000    31.50000000
   N     78.64000000    45.21000000    30.06000000
   C     79.21000000    46.54000000    29.92000000
   C     79.85000000    46.75000000    28.55000000
   O     79.23000000    46.36000000    27.57000000
   C     78.14000000    47.59000000    30.22000000
   C     76.78000000    47.47000000    29.53000000
   C     77.90000000    47.85000000    31.70000000
   H     77.86000000    44.96000000    29.47000000
   H     79.95000000    46.79000000    30.68000000
   H     78.55000000    48.55000000    29.91000000
   H     77.05000000    47.24000000    28.50000000
   H     76.15000000    46.65000000    29.88000000
   H     76.19000000    48.38000000    29.48000000
   H     77.77000000    46.85000000    32.12000000
   H     78.78000000    48.32000000    32.13000000
   H     76.96000000    48.36000000    31.92000000
   N     80.91000000    47.54000000    28.44000000
   C     81.47000000    48.10000000    27.22000000
   C     81.28000000    49.61000000    27.23000000
   O     81.38000000    50.30000000    28.23000000
   C     82.89000000    47.62000000    26.96000000
   C     83.33000000    48.07000000    25.57000000
   N     84.28000000    48.99000000    25.45000000
   O     82.71000000    47.69000000    24.58000000
   H     81.30000000    47.93000000    29.30000000
   H     80.94000000    47.63000000    26.39000000
   H     82.99000000    46.55000000    27.12000000
   H     83.49000000    48.14000000    27.72000000
   H     84.68000000    49.43000000    26.27000000
   H     84.47000000    49.28000000    24.51000000
   N     81.24000000    50.15000000    26.00000000
   C     81.01000000    51.51000000    25.59000000
   C     80.55000000    51.62000000    24.14000000
   O     80.88000000    52.55000000    23.41000000
   C     82.23000000    52.37000000    25.92000000
   C     81.94000000    53.65000000    26.65000000
   C     82.05000000    53.63000000    28.05000000
   C     81.41000000    54.77000000    25.99000000
   C     81.60000000    54.75000000    28.74000000
   C     80.87000000    55.83000000    26.73000000
   C     81.04000000    55.89000000    28.12000000
   O     80.49000000    56.86000000    28.91000000
   H     81.25000000    49.50000000    25.23000000
   H     80.13000000    51.90000000    26.10000000
   H     82.89000000    52.45000000    25.05000000
   H     82.87000000    51.80000000    26.60000000
   H     82.47000000    52.80000000    28.60000000
   H     81.21000000    54.67000000    24.93000000
   H     81.80000000    54.85000000    29.80000000
   H     80.39000000    56.63000000    26.19000000
   H     80.23000000    57.58000000    28.33000000
   N     79.58000000    50.78000000    23.79000000
   C     79.21000000    50.71000000    22.39000000
   C     78.54000000    51.98000000    21.89000000
   O     78.77000000    52.35000000    20.74000000
   C     78.32000000    49.50000000    22.11000000
   C     77.99000000    49.16000000    20.66000000
   C     77.15000000    47.91000000    20.43000000
   O     77.20000000    46.94000000    21.21000000
   O     76.38000000    47.90000000    19.44000000
   H     79.16000000    50.17000000    24.49000000
   H     80.20000000    50.60000000    21.97000000
   H     77.31000000    49.55000000    22.53000000
   H     78.82000000    48.65000000    22.55000000
   H     78.83000000    49.09000000    19.96000000
   H     77.46000000    50.04000000    20.30000000
   N     77.78000000    52.78000000    22.64000000
   C     76.86000000    52.33000000    23.67000000
   C     77.07000000    53.03000000    25.00000000
   O     77.66000000    54.10000000    25.10000000
   C     75.43000000    52.66000000    23.25000000
   C     74.92000000    51.77000000    22.12000000
   C     74.23000000    50.50000000    22.58000000
   O     73.21000000    50.04000000    22.03000000
   O     74.79000000    49.80000000    23.46000000
   H     77.71000000    53.69000000    22.21000000
   H     76.86000000    51.25000000    23.86000000
   H     75.35000000    53.72000000    23.00000000
   H     74.85000000    52.47000000    24.15000000
   H     75.71000000    51.47000000    21.42000000
   H     74.22000000    52.39000000    21.57000000
   N     76.48000000    52.40000000    26.02000000
   C     76.64000000    52.73000000    27.42000000
   H     77.27900000    53.60800000    27.51500000
   H     75.66500000    52.94200000    27.85800000
   H     77.09800000    51.89000000    27.94200000
   H     75.90000000    51.58000000    25.93000000
  Ca     73.05000000    47.62000000    22.93000000
   O     75.65000000    47.23000000    23.14000000
   H     76.25000000    47.14000000    22.39000000
   H     75.87000000    48.08000000    23.52000000
   O     73.88000000    47.93000000    20.34000000
   H     74.78000000    47.96000000    20.00000000
   H     73.34000000    47.73000000    19.58000000
   O     73.51000000    45.27000000    21.95000000
   H     74.28000000    44.84000000    21.59000000
   H     72.93000000    44.56000000    22.22000000

Ca 1.00



