%chk=loop3.holoCaM-CaMKII.run18.water2.chk
%nprocshared=20
%mem=10GB
%nosave
#b3lyp/svp scf=(tight,noincore,xqc) Test 
#IOP(5/87=12) Density=Current Pop=(MK,readradii) iop(6/33=2) iop(6/42=6)

loop3.holoCaM-CaMKII.run18.water2 

   0  1 
   C     78.49800000    66.50000000    22.85000000
   C     77.46800000    66.53000000    23.96000000
   O     76.69800000    65.58000000    24.06000000
   H     79.43200000    66.08800000    23.23300000
   H     78.13400000    65.87700000    22.03300000
   H     78.67000000    67.51300000    22.48600000
   N     77.52800000    67.52000000    24.86000000
   C     76.66800000    67.81000000    25.98000000
   C     75.22800000    68.06000000    25.57000000
   O     74.74800000    69.17000000    25.77000000
   C     77.16800000    69.01000000    26.78000000
   C     76.38800000    69.28000000    28.06000000
   O     76.23800000    70.46000000    28.44000000
   O     75.97800000    68.30000000    28.72000000
   H     78.16800000    68.26000000    24.59000000
   H     76.70800000    66.95000000    26.64000000
   H     77.02800000    69.90000000    26.17000000
   H     78.21800000    68.85000000    27.04000000
   N     74.55800000    67.10000000    24.92000000
   C     73.18800000    67.27000000    24.47000000
   C     72.14800000    67.52000000    25.55000000
   O     71.14800000    68.17000000    25.25000000
   C     72.70800000    66.13000000    23.57000000
   C     73.37800000    66.17000000    22.20000000
   C     72.85800000    67.34000000    21.36000000
   C     73.25800000    67.13000000    19.90000000
   N     72.60800000    68.05000000    18.96000000
   H     74.97800000    66.19000000    24.78000000
   H     73.16800000    68.23000000    23.96000000
   H     71.62800000    66.10000000    23.48000000
   H     72.93800000    65.20000000    24.08000000
   H     73.10800000    65.31000000    21.59000000
   H     74.45800000    66.22000000    22.34000000
   H     73.18800000    68.26000000    21.83000000
   H     71.76800000    67.32000000    21.46000000
   H     72.98800000    66.15000000    19.50000000
   H     74.34800000    67.21000000    19.92000000
   H     71.60800000    67.93000000    18.96000000
   H     72.81800000    68.99000000    19.28000000
   H     72.76800000    67.78000000    18.00000000
   N     72.39800000    67.00000000    26.75000000
   C     71.59800000    67.24000000    27.93000000
   C     71.79800000    68.65000000    28.46000000
   O     71.02800000    69.01000000    29.35000000
   C     71.92800000    66.19000000    28.99000000
   C     73.40800000    66.18000000    29.34000000
   O     74.19800000    65.71000000    28.50000000
   O     73.82800000    66.70000000    30.40000000
   H     73.20800000    66.41000000    26.88000000
   H     70.54800000    67.09000000    27.66000000
   H     71.54800000    65.19000000    28.78000000
   H     71.35800000    66.44000000    29.89000000
   N     72.77800000    69.42000000    28.00000000
   C     72.92800000    70.80000000    28.42000000
   C     73.24800000    71.12000000    29.87000000
   O     73.00800000    72.28000000    30.20000000
   H     73.33800000    69.07000000    27.24000000
   H     71.99800000    71.31000000    28.18000000
   H     73.78800000    71.16000000    27.85000000
   N     73.73800000    70.17000000    30.67000000
   C     74.10800000    70.50000000    32.03000000
   C     75.44800000    71.21000000    32.14000000
   O     75.63800000    71.66000000    33.27000000
   C     74.12800000    69.23000000    32.87000000
   C     75.41800000    68.43000000    32.87000000
   N     75.67800000    67.79000000    34.02000000
   O     76.20800000    68.28000000    31.94000000
   H     73.98800000    69.26000000    30.31000000
   H     73.34800000    71.17000000    32.43000000
   H     73.17800000    68.70000000    32.84000000
   H     73.99800000    69.68000000    33.86000000
   H     75.08800000    68.03000000    34.80000000
   H     76.39800000    67.09000000    34.14000000
   N     76.21800000    71.40000000    31.06000000
   C     77.40800000    72.23000000    31.07000000
   C     78.67800000    71.50000000    31.49000000
   O     79.70800000    72.14000000    31.67000000
   H     75.95800000    70.98000000    30.18000000
   H     77.12800000    73.04000000    31.74000000
   H     77.53800000    72.71000000    30.10000000
   N     78.61800000    70.17000000    31.54000000
   C     79.72800000    69.25000000    31.65000000
   C     79.71800000    68.16000000    30.58000000
   O     78.67800000    67.63000000    30.20000000
   C     79.64800000    68.57000000    33.02000000
   C     79.73800000    69.35000000    34.31000000
   C     81.00800000    69.78000000    34.72000000
   C     78.53800000    69.71000000    34.93000000
   C     80.97800000    70.62000000    35.85000000
   C     78.56800000    70.64000000    35.97000000
   C     79.80800000    71.09000000    36.47000000
   O     79.78800000    71.99000000    37.50000000
   H     77.68800000    69.78000000    31.43000000
   H     80.60800000    69.87000000    31.58000000
   H     80.39800000    67.78000000    33.12000000
   H     78.80800000    67.89000000    32.96000000
   H     81.96800000    69.50000000    34.31000000
   H     77.64800000    69.27000000    34.51000000
   H     81.93800000    70.95000000    36.22000000
   H     77.60800000    70.98000000    36.32000000
   H     78.95800000    72.48000000    37.48000000
   N     80.83800000    67.97000000    29.88000000
   C     81.07800000    66.82000000    29.03000000
   C     81.59800000    65.77000000    30.00000000
   O     82.35800000    66.02000000    30.93000000
   C     81.91800000    67.15000000    27.80000000
   C     81.18800000    68.00000000    26.76000000
   C     82.31800000    65.86000000    27.08000000
   C     82.05800000    68.47000000    25.60000000
   H     81.65800000    68.46000000    30.21000000
   H     80.13800000    66.56000000    28.55000000
   H     82.85800000    67.59000000    28.12000000
   H     80.70800000    68.89000000    27.16000000
   H     80.34800000    67.45000000    26.31000000
   H     81.40800000    65.35000000    26.75000000
   H     83.03800000    66.08000000    26.30000000
   H     82.88800000    65.21000000    27.75000000
   H     82.96800000    68.95000000    25.97000000
   H     82.22800000    67.62000000    24.95000000
   H     81.46800000    69.25000000    25.12000000
   N     81.30800000    64.51000000    29.67000000
   C     81.93800000    63.29000000    30.15000000
   C     82.50800000    62.42000000    29.05000000
   O     82.32800000    62.75000000    27.87000000
   C     80.85800000    62.46000000    30.84000000
   O     79.85800000    61.90000000    30.01000000
   H     80.70800000    64.39000000    28.86000000
   H     82.70800000    63.45000000    30.91000000
   H     80.43800000    63.06000000    31.65000000
   H     81.38800000    61.66000000    31.35000000
   H     79.03800000    61.94000000    30.51000000
   N     83.25800000    61.37000000    29.39000000
   C     83.78800000    60.36000000    28.49000000
   C     82.69800000    59.57000000    27.78000000
   O     82.88800000    59.21000000    26.62000000
   C     84.65800000    59.37000000    29.26000000
   H     83.37800000    61.17000000    30.37000000
   H     84.35800000    60.89000000    27.73000000
   H     85.44800000    59.84000000    29.85000000
   H     84.06800000    58.91000000    30.06000000
   H     85.02800000    58.51000000    28.71000000
   N     81.60800000    59.40000000    28.53000000
   C     80.39800000    58.74000000    28.07000000
   C     79.68800000    59.55000000    26.99000000
   O     79.07800000    58.89000000    26.15000000
   C     79.59800000    58.42000000    29.33000000
   H     81.63800000    59.72000000    29.48000000
   H     80.71800000    57.87000000    27.51000000
   H     79.31800000    59.33000000    29.86000000
   H     78.75800000    57.77000000    29.08000000
   H     80.25800000    57.86000000    29.99000000
   N     79.82800000    60.88000000    26.97000000
   C     79.15800000    61.59000000    25.89000000
   C     79.98800000    61.88000000    24.65000000
   O     79.59800000    61.84000000    23.49000000
   C     78.74800000    62.94000000    26.47000000
   C     77.49800000    62.81000000    27.33000000
   C     77.18800000    64.03000000    28.19000000
   O     76.26800000    63.92000000    29.02000000
   O     77.79800000    65.11000000    28.09000000
   H     80.45800000    61.34000000    27.61000000
   H     78.24800000    61.08000000    25.57000000
   H     78.54800000    63.73000000    25.75000000
   H     79.57800000    63.37000000    27.03000000
   H     77.74800000    62.03000000    28.04000000
   H     76.60800000    62.57000000    26.74000000
   N     81.25800000    62.22000000    24.89000000
   C     82.34800000    62.33000000    23.94000000
   H     83.23900000    61.85800000    24.35400000
   H     82.07200000    61.83200000    23.01100000
   H     82.55300000    63.38200000    23.74200000
   H     81.54800000    62.16000000    25.85000000
  Ca     76.44000000    66.29000000    30.10000000
   O     78.38000000    64.96000000    31.43000000
   H     79.00000000    64.88000000    32.16000000
   H     78.13000000    64.06000000    31.24000000
   O     75.22000000    64.68000000    31.83000000
   H     74.44000000    65.16000000    32.08000000
   H     74.90000000    63.82000000    31.57000000

Ca 1.00



