%chk=loop2.holoCaM-CaMKII.run86.water2.chk
%nprocshared=20
%mem=10GB
%nosave
#b3lyp/svp scf=(tight,noincore,xqc) Test 
#IOP(5/87=12) Density=Current Pop=(MK,readradii) iop(6/33=2) iop(6/42=6)

loop2.holoCaM-CaMKII.run86.water2 

   -2  1 
   C     56.10000000    45.62000000   -18.91000000
   C     57.40000000    45.82000000   -19.67000000
   O     58.43000000    46.11000000   -19.06000000
   H     55.30300000    45.37500000   -19.61200000
   H     56.21800000    44.80500000   -18.19600000
   H     55.84500000    46.53600000   -18.37800000
   N     57.35000000    45.75000000   -21.01000000
   C     58.52000000    45.92000000   -21.84000000
   C     59.05000000    47.34000000   -21.99000000
   O     58.31000000    48.27000000   -22.32000000
   C     58.25000000    45.25000000   -23.19000000
   C     59.50000000    45.12000000   -24.06000000
   O     60.58000000    45.03000000   -23.45000000
   O     59.33000000    45.01000000   -25.29000000
   H     56.49000000    45.41000000   -21.42000000
   H     59.31000000    45.39000000   -21.33000000
   H     57.40000000    45.65000000   -23.74000000
   H     57.95000000    44.22000000   -23.01000000
   N     60.36000000    47.52000000   -21.84000000
   C     61.15000000    48.73000000   -21.97000000
   C     62.28000000    48.59000000   -22.98000000
   O     63.17000000    49.42000000   -23.09000000
   C     61.67000000    49.30000000   -20.66000000
   H     60.90000000    46.72000000   -21.58000000
   H     60.49000000    49.48000000   -22.42000000
   H     62.27000000    48.55000000   -20.14000000
   H     62.30000000    50.16000000   -20.91000000
   H     60.82000000    49.58000000   -20.03000000
   N     62.38000000    47.50000000   -23.74000000
   C     63.49000000    47.28000000   -24.65000000
   C     63.17000000    46.61000000   -25.99000000
   O     63.84000000    46.93000000   -26.97000000
   C     64.58000000    46.56000000   -23.88000000
   C     64.23000000    45.21000000   -23.26000000
   O     63.51000000    44.38000000   -23.86000000
   O     64.61000000    45.02000000   -22.08000000
   H     61.70000000    46.78000000   -23.52000000
   H     63.89000000    48.24000000   -24.95000000
   H     64.99000000    47.24000000   -23.13000000
   H     65.38000000    46.42000000   -24.60000000
   N     62.09000000    45.83000000   -26.06000000
   C     61.88000000    44.96000000   -27.20000000
   C     62.82000000    43.77000000   -27.36000000
   O     63.03000000    43.35000000   -28.50000000
   H     61.70000000    45.51000000   -25.19000000
   H     61.93000000    45.48000000   -28.15000000
   H     60.88000000    44.54000000   -27.08000000
   N     63.17000000    43.08000000   -26.27000000
   C     64.01000000    41.91000000   -26.44000000
   C     63.23000000    40.61000000   -26.43000000
   O     63.97000000    39.67000000   -26.69000000
   C     65.19000000    41.74000000   -25.48000000
   C     64.79000000    41.62000000   -24.01000000
   N     65.79000000    41.74000000   -23.14000000
   O     63.62000000    41.49000000   -23.66000000
   H     63.04000000    43.45000000   -25.34000000
   H     64.50000000    42.01000000   -27.41000000
   H     65.84000000    42.61000000   -25.54000000
   H     65.80000000    40.88000000   -25.75000000
   H     66.75000000    41.73000000   -23.45000000
   H     65.56000000    41.81000000   -22.16000000
   N     61.91000000    40.53000000   -26.20000000
   C     61.19000000    39.28000000   -26.13000000
   C     61.21000000    38.56000000   -24.79000000
   O     60.83000000    37.39000000   -24.81000000
   H     61.37000000    41.30000000   -25.84000000
   H     61.47000000    38.62000000   -26.95000000
   H     60.16000000    39.63000000   -26.27000000
   N     61.80000000    39.11000000   -23.73000000
   C     61.85000000    38.47000000   -22.43000000
   C     61.53000000    39.39000000   -21.26000000
   O     61.99000000    40.53000000   -21.21000000
   C     63.18000000    37.81000000   -22.07000000
   C     63.42000000    36.57000000   -22.93000000
   O     64.17000000    38.77000000   -22.37000000
   H     62.24000000    40.01000000   -23.83000000
   H     61.13000000    37.65000000   -22.42000000
   H     63.23000000    37.68000000   -20.99000000
   H     64.15000000    39.49000000   -21.74000000
   H     62.59000000    35.89000000   -22.71000000
   H     63.65000000    36.75000000   -23.98000000
   H     64.30000000    36.04000000   -22.57000000
   N     60.88000000    38.90000000   -20.21000000
   C     60.85000000    39.71000000   -19.01000000
   C     62.24000000    39.75000000   -18.37000000
   O     62.82000000    38.69000000   -18.17000000
   C     59.79000000    39.19000000   -18.04000000
   C     58.43000000    39.63000000   -18.55000000
   C     59.99000000    39.79000000   -16.65000000
   C     57.28000000    38.81000000   -17.99000000
   H     60.48000000    37.97000000   -20.21000000
   H     60.74000000    40.75000000   -19.30000000
   H     59.94000000    38.12000000   -17.97000000
   H     58.50000000    39.38000000   -19.61000000
   H     58.23000000    40.69000000   -18.39000000
   H     60.92000000    39.42000000   -16.23000000
   H     60.19000000    40.86000000   -16.73000000
   H     59.15000000    39.65000000   -15.96000000
   H     57.53000000    37.75000000   -18.00000000
   H     57.07000000    39.18000000   -16.98000000
   H     56.37000000    38.98000000   -18.56000000
   N     62.81000000    40.95000000   -18.22000000
   C     64.05000000    41.24000000   -17.53000000
   C     63.77000000    41.45000000   -16.05000000
   O     62.63000000    41.76000000   -15.69000000
   C     64.74000000    42.43000000   -18.19000000
   C     65.00000000    42.33000000   -19.69000000
   O     64.07000000    42.42000000   -20.52000000
   O     66.13000000    42.10000000   -20.17000000
   H     62.39000000    41.69000000   -18.75000000
   H     64.72000000    40.39000000   -17.67000000
   H     65.68000000    42.52000000   -17.65000000
   H     64.20000000    43.36000000   -18.04000000
   N     64.78000000    41.38000000   -15.17000000
   C     64.60000000    41.58000000   -13.75000000
   C     64.17000000    42.97000000   -13.30000000
   O     63.30000000    43.01000000   -12.43000000
   C     65.88000000    41.14000000   -13.03000000
   C     65.90000000    41.12000000   -11.52000000
   C     66.91000000    41.84000000   -10.87000000
   C     64.85000000    40.53000000   -10.81000000
   C     66.92000000    41.84000000    -9.47000000
   C     64.85000000    40.50000000    -9.41000000
   C     65.94000000    41.12000000    -8.78000000
   H     65.65000000    41.05000000   -15.56000000
   H     63.79000000    40.94000000   -13.40000000
   H     66.63000000    41.90000000   -13.26000000
   H     66.20000000    40.16000000   -13.38000000
   H     67.72000000    42.30000000   -11.42000000
   H     63.98000000    40.10000000   -11.29000000
   H     67.65000000    42.37000000    -8.88000000
   H     64.14000000    39.87000000    -8.90000000
   H     66.07000000    41.01000000    -7.72000000
   N     64.48000000    44.05000000   -14.02000000
   C     63.95000000    45.37000000   -13.78000000
   C     62.57000000    45.65000000   -14.37000000
   O     61.96000000    46.71000000   -14.24000000
   C     64.96000000    46.39000000   -14.30000000
   C     66.22000000    45.54000000   -14.40000000
   C     65.68000000    44.18000000   -14.82000000
   H     63.92000000    45.49000000   -12.69000000
   H     64.61000000    46.71000000   -15.28000000
   H     65.11000000    47.17000000   -13.55000000
   H     66.86000000    46.03000000   -15.14000000
   H     66.72000000    45.43000000   -13.43000000
   H     65.46000000    44.23000000   -15.89000000
   H     66.44000000    43.42000000   -14.63000000
   N     62.02000000    44.69000000   -15.12000000
   C     60.66000000    44.63000000   -15.61000000
   C     59.73000000    43.71000000   -14.83000000
   O     58.57000000    43.98000000   -14.54000000
   C     60.65000000    44.17000000   -17.06000000
   C     61.54000000    44.94000000   -18.03000000
   C     61.40000000    44.47000000   -19.47000000
   O     61.69000000    45.23000000   -20.42000000
   O     61.23000000    43.25000000   -19.71000000
   H     62.63000000    44.03000000   -15.57000000
   H     60.10000000    45.57000000   -15.56000000
   H     59.63000000    44.21000000   -17.44000000
   H     61.00000000    43.14000000   -17.08000000
   H     62.59000000    45.04000000   -17.73000000
   H     61.20000000    45.98000000   -18.08000000
   N     60.35000000    42.65000000   -14.30000000
   C     59.71000000    41.79000000   -13.33000000
   H     58.71300000    41.52600000   -13.68100000
   H     60.30100000    40.88300000   -13.20200000
   H     59.63200000    42.31200000   -12.37600000
   H     61.34000000    42.53000000   -14.47000000
  Ca     62.27000000    43.14000000   -22.12600000
   O     59.24000000    42.62000000   -21.18600000
   H     59.77000000    42.89000000   -20.43600000
   H     58.34000000    42.84000000   -20.93600000
   O     60.33000000    41.88000000   -23.52600000
   H     59.68000000    42.00000000   -22.82600000
   H     59.96000000    42.33000000   -24.28600000

Ca 1.00



