%chk=loop4.apoCaM-CA-Ng.Init295.run37.water3.chk
%nprocshared=20
%mem=10GB
%nosave
#b3lyp/svp scf=(tight,noincore,xqc) Test 
#IOP(5/87=12) Density=Current Pop=(MK,readradii) iop(6/33=2) iop(6/42=6)

loop4.apoCaM-CA-Ng.Init295.run37.water3 

   -3  1 
   C     82.75000000    27.52000000    67.69000000
   C     83.77000000    26.88000000    68.62000000
   O     84.84000000    27.44000000    68.86000000
   H     81.88100000    27.83600000    68.26700000
   H     83.19600000    28.38600000    67.20200000
   H     82.44100000    26.79600000    66.93600000
   N     83.46000000    25.74000000    69.24000000
   C     84.09000000    25.22000000    70.43000000
   C     83.88000000    26.17000000    71.60000000
   O     84.89000000    26.46000000    72.24000000
   C     85.45000000    24.58000000    70.18000000
   C     85.64000000    23.77000000    68.90000000
   O     86.76000000    23.57000000    68.37000000
   O     84.64000000    23.22000000    68.41000000
   H     82.60000000    25.36000000    68.88000000
   H     83.42000000    24.37000000    70.60000000
   H     85.75000000    23.95000000    71.01000000
   H     86.23000000    25.34000000    70.26000000
   N     82.67000000    26.72000000    71.75000000
   C     82.25000000    27.53000000    72.88000000
   C     81.19000000    26.73000000    73.62000000
   O     80.18000000    26.41000000    73.00000000
   C     81.72000000    28.88000000    72.38000000
   C     82.78000000    29.82000000    71.81000000
   C     80.89000000    29.60000000    73.43000000
   C     83.88000000    30.14000000    72.81000000
   H     81.94000000    26.43000000    71.12000000
   H     83.11000000    27.71000000    73.52000000
   H     81.00000000    28.64000000    71.60000000
   H     82.33000000    30.74000000    71.44000000
   H     83.27000000    29.28000000    70.99000000
   H     80.09000000    28.92000000    73.72000000
   H     81.53000000    29.78000000    74.30000000
   H     80.54000000    30.55000000    73.02000000
   H     83.49000000    30.79000000    73.59000000
   H     84.43000000    29.27000000    73.18000000
   H     84.66000000    30.70000000    72.29000000
   N     81.31000000    26.38000000    74.90000000
   C     82.47000000    26.42000000    75.76000000
   C     83.56000000    25.46000000    75.31000000
   O     84.73000000    25.75000000    75.55000000
   C     82.08000000    26.08000000    77.20000000
   C     80.96000000    26.97000000    77.69000000
   O     81.09000000    28.21000000    77.73000000
   O     79.90000000    26.38000000    78.01000000
   H     80.51000000    26.02000000    75.40000000
   H     82.82000000    27.46000000    75.77000000
   H     82.88000000    26.14000000    77.94000000
   H     81.70000000    25.06000000    77.14000000
   N     83.27000000    24.38000000    74.58000000
   C     84.19000000    23.52000000    73.86000000
   C     84.79000000    22.53000000    74.85000000
   O     84.09000000    22.02000000    75.73000000
   H     82.27000000    24.28000000    74.46000000
   H     84.98000000    24.01000000    73.29000000
   H     83.58000000    22.94000000    73.17000000
   N     86.08000000    22.27000000    74.67000000
   C     86.94000000    21.43000000    75.47000000
   C     88.21000000    22.12000000    75.97000000
   O     89.01000000    21.51000000    76.68000000
   C     87.29000000    20.18000000    74.68000000
   C     87.86000000    20.46000000    73.30000000
   O     88.18000000    21.63000000    73.02000000
   O     88.07000000    19.50000000    72.52000000
   H     86.41000000    22.70000000    73.81000000
   H     86.47000000    21.07000000    76.39000000
   H     86.33000000    19.66000000    74.61000000
   H     87.93000000    19.49000000    75.24000000
   N     88.32000000    23.42000000    75.72000000
   C     89.52000000    24.20000000    75.97000000
   C     90.58000000    24.19000000    74.88000000
   O     91.53000000    24.95000000    74.97000000
   H     87.58000000    23.85000000    75.19000000
   H     89.93000000    24.06000000    76.97000000
   H     89.20000000    25.25000000    75.96000000
   N     90.43000000    23.35000000    73.86000000
   C     91.47000000    23.01000000    72.91000000
   C     92.02000000    24.27000000    72.24000000
   O     93.20000000    24.61000000    72.34000000
   C     92.55000000    22.06000000    73.43000000
   C     91.99000000    20.90000000    74.24000000
   C     92.84000000    19.65000000    74.11000000
   N     92.63000000    18.80000000    73.09000000
   O     93.75000000    19.42000000    74.91000000
   H     89.61000000    22.76000000    73.81000000
   H     90.99000000    22.46000000    72.10000000
   H     93.35000000    22.63000000    73.90000000
   H     93.02000000    21.62000000    72.55000000
   H     90.97000000    20.71000000    73.90000000
   H     91.94000000    21.20000000    75.29000000
   H     91.85000000    18.97000000    72.47000000
   H     93.08000000    17.90000000    73.14000000
   N     91.18000000    25.01000000    71.52000000
   C     91.58000000    26.04000000    70.58000000
   C     92.26000000    25.57000000    69.29000000
   O     92.11000000    24.43000000    68.86000000
   C     90.34000000    26.88000000    70.31000000
   C     89.16000000    26.05000000    69.81000000
   C     90.09000000    27.89000000    71.44000000
   H     90.24000000    24.68000000    71.37000000
   H     92.43000000    26.62000000    70.94000000
   H     90.51000000    27.54000000    69.46000000
   H     88.96000000    25.14000000    70.37000000
   H     88.46000000    26.84000000    69.55000000
   H     89.56000000    25.69000000    68.86000000
   H     89.26000000    28.52000000    71.14000000
   H     89.89000000    27.33000000    72.35000000
   H     90.94000000    28.57000000    71.52000000
   N     92.99000000    26.50000000    68.67000000
   C     93.69000000    26.41000000    67.40000000
   C     93.05000000    27.32000000    66.36000000
   O     92.89000000    28.53000000    66.53000000
   C     95.17000000    26.74000000    67.55000000
   C     96.02000000    26.44000000    66.32000000
   N     97.08000000    27.23000000    66.13000000
   O     95.73000000    25.59000000    65.48000000
   H     93.04000000    27.43000000    69.06000000
   H     93.57000000    25.41000000    66.98000000
   H     95.69000000    26.16000000    68.33000000
   H     95.26000000    27.79000000    67.83000000
   H     97.19000000    28.07000000    66.67000000
   H     97.81000000    27.04000000    65.47000000
   N     92.70000000    26.72000000    65.22000000
   C     92.14000000    27.47000000    64.11000000
   C     91.34000000    26.60000000    63.15000000
   O     91.93000000    25.69000000    62.57000000
   C     93.28000000    28.16000000    63.36000000
   C     93.06000000    29.42000000    62.56000000
   C     92.73000000    30.58000000    63.28000000
   C     93.26000000    29.43000000    61.17000000
   C     92.55000000    31.79000000    62.60000000
   C     93.05000000    30.62000000    60.47000000
   C     92.75000000    31.79000000    61.20000000
   O     92.37000000    32.90000000    60.52000000
   H     92.75000000    25.71000000    65.26000000
   H     91.52000000    28.28000000    64.48000000
   H     93.83000000    27.41000000    62.79000000
   H     94.06000000    28.44000000    64.06000000
   H     92.55000000    30.44000000    64.33000000
   H     93.56000000    28.53000000    60.66000000
   H     92.18000000    32.69000000    63.06000000
   H     93.17000000    30.65000000    59.40000000
   H     92.38000000    32.70000000    59.58000000
   N     90.05000000    26.89000000    62.96000000
   C     89.08000000    26.11000000    62.21000000
   C     88.03000000    27.02000000    61.60000000
   O     87.96000000    26.91000000    60.38000000
   C     88.60000000    25.04000000    63.19000000
   C     89.49000000    23.81000000    63.32000000
   C     88.90000000    22.60000000    64.03000000
   O     89.36000000    21.50000000    63.64000000
   O     88.03000000    22.66000000    64.93000000
   H     89.65000000    27.72000000    63.39000000
   H     89.63000000    25.52000000    61.47000000
   H     87.62000000    24.72000000    62.83000000
   H     88.43000000    25.42000000    64.20000000
   H     90.37000000    24.14000000    63.87000000
   H     89.77000000    23.40000000    62.34000000
   N     87.17000000    27.72000000    62.35000000
   C     87.15000000    27.88000000    63.79000000
   C     88.02000000    29.06000000    64.18000000
   O     88.68000000    29.68000000    63.34000000
   C     85.68000000    27.97000000    64.17000000
   C     84.80000000    26.74000000    63.93000000
   C     85.34000000    25.46000000    64.56000000
   O     85.23000000    24.38000000    63.95000000
   O     85.65000000    25.43000000    65.77000000
   H     86.68000000    28.47000000    61.87000000
   H     87.55000000    27.03000000    64.35000000
   H     85.23000000    28.87000000    63.77000000
   H     85.65000000    28.04000000    65.26000000
   H     84.73000000    26.64000000    62.85000000
   H     83.79000000    27.03000000    64.21000000
   N     87.91000000    29.50000000    65.44000000
   C     88.44000000    30.68000000    66.09000000
   H     89.36400000    30.98200000    65.59700000
   H     87.71300000    31.48900000    66.02500000
   H     88.64400000    30.45800000    67.13700000
   H     87.37000000    28.88000000    66.02000000
  Ca     85.52000000    22.74000000    66.00000000
   O     86.10000000    21.26000000    63.78000000
   H     86.14000000    20.37000000    63.42000000
   H     87.01000000    21.56000000    63.78000000
   O     83.95000000    20.72000000    66.38000000
   H     83.86000000    20.38000000    67.27000000
   H     83.16000000    20.42000000    65.93000000
   O     87.05000000    20.84000000    67.12000000
   H     87.86000000    20.64000000    66.66000000
   H     87.26000000    20.73000000    68.05000000

Ca 1.00



