%chk=loop3.holoCaM.run30.water1.chk
%nprocshared=20
%mem=10GB
%nosave
#b3lyp/svp scf=(tight,noincore,xqc) Test 
#IOP(5/87=12) Density=Current Pop=(MK,readradii) iop(6/33=2) iop(6/42=6)

loop3.holoCaM.run30.water1 

   0  1 
   C     72.10000000    47.53000000    89.28000000
   C     73.22000000    48.31000000    88.61000000
   O     73.60000000    47.95000000    87.50000000
   H     71.21000000    47.56000000    88.65100000
   H     72.41100000    46.49500000    89.41900000
   H     71.87500000    47.97600000    90.24900000
   N     73.74000000    49.40000000    89.18000000
   C     74.74000000    50.30000000    88.66000000
   C     76.07000000    49.99000000    89.32000000
   O     76.23000000    49.90000000    90.54000000
   C     74.27000000    51.71000000    88.99000000
   C     75.15000000    52.71000000    88.26000000
   O     76.39000000    52.55000000    88.19000000
   O     74.66000000    53.60000000    87.54000000
   H     73.42000000    49.63000000    90.11000000
   H     74.79000000    50.26000000    87.57000000
   H     74.18000000    51.91000000    90.06000000
   H     73.27000000    51.90000000    88.60000000
   N     77.15000000    49.99000000    88.53000000
   C     78.49000000    49.68000000    89.00000000
   C     79.40000000    50.87000000    89.25000000
   O     80.60000000    50.68000000    89.40000000
   C     79.14000000    48.53000000    88.25000000
   C     78.17000000    47.35000000    88.23000000
   C     78.67000000    46.06000000    87.60000000
   C     79.94000000    45.53000000    88.28000000
   N     80.40000000    44.25000000    87.73000000
   H     76.98000000    49.92000000    87.54000000
   H     78.36000000    49.36000000    90.03000000
   H     79.94000000    48.22000000    88.92000000
   H     79.45000000    48.75000000    87.23000000
   H     77.31000000    47.68000000    87.65000000
   H     77.88000000    47.14000000    89.26000000
   H     78.81000000    46.30000000    86.54000000
   H     77.91000000    45.28000000    87.72000000
   H     79.74000000    45.24000000    89.31000000
   H     80.74000000    46.25000000    88.11000000
   H     81.38000000    44.20000000    87.97000000
   H     79.92000000    43.47000000    88.16000000
   H     80.36000000    44.21000000    86.73000000
   N     78.91000000    52.10000000    89.10000000
   C     79.66000000    53.30000000    89.41000000
   C     78.83000000    54.39000000    90.07000000
   O     79.41000000    55.44000000    90.34000000
   C     80.21000000    53.80000000    88.08000000
   C     79.09000000    53.86000000    87.05000000
   O     78.88000000    52.99000000    86.18000000
   O     78.31000000    54.83000000    87.04000000
   H     77.93000000    52.14000000    88.87000000
   H     80.50000000    53.10000000    90.09000000
   H     80.90000000    53.04000000    87.68000000
   H     80.74000000    54.73000000    88.30000000
   N     77.53000000    54.15000000    90.23000000
   C     76.53000000    54.81000000    91.04000000
   C     75.70000000    55.90000000    90.38000000
   O     74.82000000    56.53000000    90.97000000
   H     77.21000000    53.39000000    89.64000000
   H     77.07000000    55.24000000    91.89000000
   H     75.94000000    54.02000000    91.51000000
   N     75.88000000    56.25000000    89.10000000
   C     75.28000000    57.42000000    88.50000000
   C     73.81000000    57.33000000    88.12000000
   O     73.04000000    58.27000000    87.93000000
   C     76.14000000    57.86000000    87.32000000
   C     76.10000000    57.07000000    86.02000000
   N     76.48000000    57.70000000    84.91000000
   O     75.61000000    55.94000000    85.98000000
   H     76.42000000    55.66000000    88.49000000
   H     75.47000000    58.19000000    89.26000000
   H     77.16000000    57.81000000    87.67000000
   H     75.82000000    58.85000000    86.98000000
   H     76.86000000    58.63000000    84.97000000
   H     76.40000000    57.18000000    84.04000000
   N     73.30000000    56.10000000    88.06000000
   C     71.93000000    55.64000000    87.91000000
   C     71.55000000    55.67000000    86.43000000
   O     70.36000000    55.61000000    86.16000000
   H     73.99000000    55.39000000    88.24000000
   H     71.26000000    56.28000000    88.48000000
   H     71.95000000    54.63000000    88.30000000
   N     72.52000000    55.63000000    85.51000000
   C     72.32000000    55.19000000    84.14000000
   C     73.00000000    53.84000000    83.97000000
   O     74.19000000    53.73000000    84.27000000
   C     72.88000000    56.23000000    83.18000000
   C     72.38000000    57.64000000    83.40000000
   C     73.22000000    58.75000000    83.19000000
   C     71.12000000    57.92000000    83.93000000
   C     72.88000000    60.05000000    83.57000000
   C     70.77000000    59.20000000    84.38000000
   C     71.64000000    60.29000000    84.18000000
   O     71.42000000    61.59000000    84.54000000
   H     73.42000000    55.53000000    85.95000000
   H     71.25000000    55.08000000    83.92000000
   H     72.47000000    56.03000000    82.19000000
   H     73.96000000    56.28000000    83.07000000
   H     74.28000000    58.61000000    83.01000000
   H     70.45000000    57.08000000    84.07000000
   H     73.61000000    60.85000000    83.49000000
   H     69.83000000    59.41000000    84.89000000
   H     70.62000000    61.66000000    85.06000000
   N     72.28000000    52.80000000    83.55000000
   C     72.84000000    51.47000000    83.47000000
   C     73.33000000    51.30000000    82.04000000
   O     72.60000000    51.49000000    81.07000000
   C     71.85000000    50.40000000    83.92000000
   C     71.18000000    50.62000000    85.27000000
   C     72.63000000    49.09000000    83.84000000
   C     72.14000000    50.69000000    86.45000000
   H     71.33000000    52.98000000    83.26000000
   H     73.69000000    51.39000000    84.15000000
   H     71.00000000    50.35000000    83.24000000
   H     70.52000000    49.78000000    85.48000000
   H     70.53000000    51.50000000    85.26000000
   H     72.00000000    48.29000000    84.23000000
   H     72.88000000    48.75000000    82.83000000
   H     73.52000000    49.15000000    84.47000000
   H     72.37000000    51.75000000    86.56000000
   H     71.61000000    50.54000000    87.40000000
   H     73.04000000    50.09000000    86.32000000
   N     74.57000000    50.86000000    81.87000000
   C     75.18000000    50.63000000    80.57000000
   C     75.11000000    49.15000000    80.24000000
   O     74.82000000    48.29000000    81.07000000
   C     76.61000000    51.16000000    80.52000000
   O     77.47000000    50.66000000    81.51000000
   H     75.10000000    50.77000000    82.73000000
   H     74.64000000    51.12000000    79.76000000
   H     76.43000000    52.24000000    80.59000000
   H     77.05000000    50.94000000    79.55000000
   H     77.23000000    51.20000000    82.27000000
   N     75.53000000    48.75000000    79.04000000
   C     75.51000000    47.36000000    78.62000000
   C     76.46000000    46.57000000    79.50000000
   O     76.05000000    45.56000000    80.06000000
   C     75.79000000    47.10000000    77.15000000
   H     75.72000000    49.43000000    78.32000000
   H     74.48000000    47.00000000    78.66000000
   H     76.86000000    46.98000000    77.00000000
   H     75.43000000    46.11000000    76.88000000
   H     75.36000000    47.93000000    76.58000000
   N     77.67000000    47.07000000    79.75000000
   C     78.61000000    46.42000000    80.64000000
   C     78.36000000    46.60000000    82.13000000
   O     79.15000000    46.14000000    82.95000000
   C     80.01000000    46.81000000    80.17000000
   H     77.93000000    47.98000000    79.38000000
   H     78.59000000    45.35000000    80.40000000
   H     80.75000000    46.23000000    80.71000000
   H     80.11000000    46.61000000    79.10000000
   H     80.15000000    47.87000000    80.40000000
   N     77.18000000    47.14000000    82.44000000
   C     76.51000000    46.96000000    83.71000000
   C     75.37000000    45.96000000    83.73000000
   O     75.21000000    45.22000000    84.69000000
   C     75.99000000    48.31000000    84.21000000
   C     77.10000000    49.32000000    84.52000000
   C     76.52000000    50.71000000    84.70000000
   O     76.15000000    50.93000000    85.88000000
   O     76.57000000    51.61000000    83.83000000
   H     76.60000000    47.65000000    81.78000000
   H     77.25000000    46.65000000    84.45000000
   H     75.47000000    48.13000000    85.15000000
   H     75.35000000    48.72000000    83.43000000
   H     77.85000000    49.36000000    83.73000000
   H     77.49000000    49.00000000    85.48000000
   N     74.49000000    46.02000000    82.73000000
   C     73.41000000    45.12000000    82.37000000
   H     72.55800000    45.70000000    82.01600000
   H     73.74500000    44.44800000    81.58000000
   H     73.11500000    44.53800000    83.24300000
   H     74.68000000    46.70000000    82.00000000
  Ca     76.43000000    53.47000000    85.60000000
   O     76.87000000    54.61000000    83.28000000
   H     76.52000000    54.30000000    82.44000000
   H     77.60000000    55.17000000    83.04000000

Ca 1.00



