%chk=loop4.apoCaM-CA-Ng.Init293.run10.water3.chk
%nprocshared=20
%mem=10GB
%nosave
#b3lyp/svp scf=(tight,noincore,xqc) Test 
#IOP(5/87=12) Density=Current Pop=(MK,readradii) iop(6/33=2) iop(6/42=6)

loop4.apoCaM-CA-Ng.Init293.run10.water3 

   -3  1 
   C     42.64000000    55.25000000    38.29000000
   C     43.30000000    56.51000000    38.82000000
   O     44.41000000    56.41000000    39.34000000
   H     41.70300000    55.51100000    37.79800000
   H     43.30300000    54.76500000    37.57400000
   H     42.43800000    54.56900000    39.11700000
   N     42.59000000    57.64000000    38.84000000
   C     42.98000000    59.02000000    39.08000000
   C     44.38000000    59.42000000    38.65000000
   O     45.33000000    58.84000000    39.17000000
   C     42.63000000    59.45000000    40.50000000
   C     43.08000000    58.69000000    41.74000000
   O     42.37000000    58.59000000    42.77000000
   O     44.19000000    58.12000000    41.77000000
   H     41.66000000    57.57000000    38.44000000
   H     42.32000000    59.44000000    38.32000000
   H     41.55000000    59.51000000    40.57000000
   H     43.00000000    60.47000000    40.62000000
   N     44.52000000    60.48000000    37.85000000
   C     45.68000000    61.29000000    37.54000000
   C     46.54000000    61.78000000    38.69000000
   O     47.66000000    62.27000000    38.52000000
   C     46.54000000    60.81000000    36.37000000
   C     45.62000000    60.85000000    35.15000000
   C     47.19000000    59.43000000    36.46000000
   C     46.44000000    60.75000000    33.86000000
   H     43.66000000    60.82000000    37.45000000
   H     45.25000000    62.25000000    37.24000000
   H     47.24000000    61.62000000    36.16000000
   H     44.97000000    61.72000000    35.09000000
   H     44.93000000    60.02000000    35.31000000
   H     47.83000000    59.32000000    35.58000000
   H     47.77000000    59.45000000    37.38000000
   H     46.36000000    58.73000000    36.54000000
   H     45.76000000    60.86000000    33.02000000
   H     47.12000000    61.61000000    33.93000000
   H     47.07000000    59.87000000    33.77000000
   N     46.05000000    61.64000000    39.92000000
   C     46.89000000    61.80000000    41.09000000
   C     47.74000000    60.59000000    41.43000000
   O     47.27000000    59.45000000    41.44000000
   C     46.18000000    62.37000000    42.32000000
   C     45.52000000    63.71000000    42.03000000
   O     44.31000000    63.83000000    42.31000000
   O     46.15000000    64.60000000    41.42000000
   H     45.18000000    61.12000000    39.95000000
   H     47.57000000    62.63000000    40.90000000
   H     46.92000000    62.47000000    43.12000000
   H     45.51000000    61.67000000    42.83000000
   N     49.00000000    60.70000000    41.86000000
   C     49.82000000    61.82000000    42.26000000
   C     51.28000000    61.54000000    42.57000000
   O     51.57000000    60.65000000    43.36000000
   H     49.47000000    59.80000000    41.81000000
   H     49.41000000    62.21000000    43.19000000
   H     49.82000000    62.60000000    41.49000000
   N     52.32000000    62.28000000    42.19000000
   C     52.31000000    63.44000000    41.32000000
   C     53.70000000    63.71000000    40.77000000
   O     54.72000000    63.18000000    41.21000000
   C     51.73000000    64.65000000    42.05000000
   C     52.17000000    64.95000000    43.48000000
   O     51.28000000    65.29000000    44.29000000
   O     53.35000000    64.87000000    43.88000000
   H     53.25000000    61.96000000    42.43000000
   H     51.60000000    63.23000000    40.52000000
   H     50.64000000    64.56000000    42.15000000
   H     51.87000000    65.51000000    41.40000000
   N     53.89000000    64.53000000    39.73000000
   C     52.87000000    65.15000000    38.91000000
   C     52.77000000    64.61000000    37.49000000
   O     51.63000000    64.39000000    37.10000000
   H     54.83000000    64.67000000    39.38000000
   H     53.24000000    66.17000000    38.89000000
   H     51.90000000    65.23000000    39.40000000
   N     53.84000000    64.28000000    36.77000000
   C     53.75000000    63.83000000    35.39000000
   C     52.89000000    62.57000000    35.28000000
   O     52.21000000    62.34000000    34.28000000
   C     55.16000000    63.76000000    34.83000000
   C     55.13000000    63.51000000    33.33000000
   C     56.55000000    63.49000000    32.78000000
   N     57.26000000    62.41000000    33.11000000
   O     57.02000000    64.41000000    32.11000000
   H     54.72000000    64.46000000    37.23000000
   H     53.29000000    64.60000000    34.77000000
   H     55.77000000    63.00000000    35.33000000
   H     55.62000000    64.73000000    35.04000000
   H     54.62000000    64.27000000    32.75000000
   H     54.66000000    62.54000000    33.15000000
   H     56.74000000    61.69000000    33.60000000
   H     58.20000000    62.33000000    32.75000000
   N     53.01000000    61.71000000    36.29000000
   C     52.29000000    60.45000000    36.40000000
   C     52.91000000    59.36000000    35.54000000
   O     54.12000000    59.13000000    35.52000000
   C     52.17000000    60.07000000    37.87000000
   C     51.03000000    60.83000000    38.55000000
   C     53.46000000    60.13000000    38.69000000
   H     53.57000000    61.98000000    37.08000000
   H     51.29000000    60.50000000    35.97000000
   H     51.96000000    59.00000000    37.95000000
   H     50.89000000    60.64000000    39.62000000
   H     51.25000000    61.90000000    38.54000000
   H     50.12000000    60.63000000    37.99000000
   H     53.28000000    60.00000000    39.76000000
   H     54.00000000    59.20000000    38.55000000
   H     54.14000000    60.95000000    38.48000000
   N     52.05000000    58.52000000    34.95000000
   C     52.27000000    57.23000000    34.33000000
   C     52.78000000    56.17000000    35.29000000
   O     52.28000000    55.05000000    35.21000000
   C     53.10000000    57.48000000    33.07000000
   C     54.05000000    56.34000000    32.72000000
   N     53.61000000    55.39000000    31.89000000
   O     55.20000000    56.34000000    33.15000000
   H     51.16000000    58.93000000    34.71000000
   H     51.34000000    56.72000000    34.07000000
   H     53.80000000    58.31000000    33.03000000
   H     52.29000000    57.53000000    32.34000000
   H     52.78000000    55.45000000    31.32000000
   H     54.25000000    54.62000000    31.72000000
   N     53.67000000    56.49000000    36.24000000
   C     54.12000000    55.65000000    37.33000000
   C     52.99000000    55.37000000    38.31000000
   O     52.49000000    56.34000000    38.87000000
   C     55.39000000    56.17000000    37.99000000
   C     56.66000000    56.07000000    37.18000000
   C     57.75000000    55.53000000    37.86000000
   C     56.81000000    56.60000000    35.89000000
   C     59.02000000    55.64000000    37.28000000
   C     58.08000000    56.63000000    35.31000000
   C     59.23000000    56.20000000    36.00000000
   O     60.48000000    56.38000000    35.49000000
   H     54.10000000    57.40000000    36.15000000
   H     54.33000000    54.72000000    36.81000000
   H     55.64000000    55.66000000    38.92000000
   H     55.17000000    57.19000000    38.31000000
   H     57.74000000    55.15000000    38.87000000
   H     56.03000000    57.09000000    35.34000000
   H     59.89000000    55.30000000    37.82000000
   H     58.18000000    57.10000000    34.34000000
   H     60.42000000    56.62000000    34.56000000
   N     52.74000000    54.09000000    38.61000000
   C     51.86000000    53.54000000    39.61000000
   C     50.42000000    53.48000000    39.13000000
   O     49.56000000    53.04000000    39.89000000
   C     52.18000000    54.03000000    41.02000000
   C     53.61000000    53.67000000    41.44000000
   C     53.88000000    54.12000000    42.86000000
   O     54.11000000    53.31000000    43.79000000
   O     54.05000000    55.35000000    42.95000000
   H     53.24000000    53.41000000    38.06000000
   H     52.25000000    52.52000000    39.65000000
   H     51.49000000    53.53000000    41.69000000
   H     52.06000000    55.11000000    41.16000000
   H     54.37000000    53.99000000    40.73000000
   H     53.64000000    52.58000000    41.32000000
   N     50.15000000    53.73000000    37.85000000
   C     48.84000000    53.98000000    37.29000000
   C     48.23000000    52.80000000    36.53000000
   O     47.16000000    52.88000000    35.93000000
   C     48.82000000    55.30000000    36.52000000
   C     49.24000000    56.48000000    37.40000000
   C     48.24000000    56.70000000    38.52000000
   O     47.13000000    56.12000000    38.64000000
   O     48.60000000    57.42000000    39.48000000
   H     50.92000000    53.93000000    37.23000000
   H     48.11000000    54.10000000    38.09000000
   H     47.84000000    55.62000000    36.17000000
   H     49.52000000    55.22000000    35.69000000
   H     49.37000000    57.38000000    36.80000000
   H     50.24000000    56.29000000    37.78000000
   N     48.83000000    51.61000000    36.61000000
   C     48.38000000    50.35000000    36.06000000
   H     47.45400000    50.50600000    35.50700000
   H     49.14200000    49.95300000    35.38900000
   H     48.20400000    49.64200000    36.87000000
   H     49.67000000    51.56000000    37.18000000
  Ca     46.39000000    57.12000000    40.85000000
   O     45.13000000    55.05000000    41.86000000
   H     44.18000000    55.03000000    42.00000000
   H     45.39000000    54.13000000    41.83000000
   O     47.74000000    54.65000000    41.27000000
   H     48.44000000    54.19000000    40.81000000
   H     47.66000000    54.19000000    42.11000000
   O     47.65000000    56.92000000    43.26000000
   H     48.26000000    57.64000000    43.45000000
   H     47.97000000    56.20000000    43.81000000

Ca 1.00



