%chk=loop4.holoCaM.run16.water2.chk
%nprocshared=20
%mem=10GB
%nosave
#b3lyp/svp scf=(tight,noincore,xqc) Test 
#IOP(5/87=12) Density=Current Pop=(MK,readradii) iop(6/33=2) iop(6/42=6)

loop4.holoCaM.run16.water2 

   -3  1 
   C     52.14000000    33.20000000    35.77000000
   C     53.03000000    31.96000000    35.79000000
   O     53.12000000    31.28000000    34.77000000
   H     51.20600000    32.98400000    36.28800000
   H     52.65100000    34.02300000    36.27000000
   H     51.92600000    33.47800000    34.73800000
   N     53.84000000    31.85000000    36.84000000
   C     54.66000000    30.68000000    37.10000000
   C     53.75000000    29.46000000    37.16000000
   O     52.79000000    29.50000000    37.93000000
   C     55.45000000    30.85000000    38.40000000
   C     56.22000000    29.59000000    38.77000000
   O     56.14000000    29.13000000    39.93000000
   O     56.78000000    28.91000000    37.88000000
   H     53.85000000    32.64000000    37.46000000
   H     55.47000000    30.60000000    36.37000000
   H     54.71000000    31.08000000    39.17000000
   H     56.09000000    31.73000000    38.33000000
   N     54.07000000    28.40000000    36.43000000
   C     53.27000000    27.19000000    36.43000000
   C     53.92000000    26.05000000    37.21000000
   O     53.17000000    25.15000000    37.57000000
   C     52.84000000    26.86000000    35.00000000
   C     51.68000000    27.76000000    34.60000000
   C     52.56000000    25.38000000    34.72000000
   C     51.41000000    27.88000000    33.11000000
   H     54.85000000    28.36000000    35.79000000
   H     52.36000000    27.37000000    37.00000000
   H     53.72000000    27.23000000    34.47000000
   H     51.96000000    28.77000000    34.88000000
   H     50.74000000    27.49000000    35.08000000
   H     52.21000000    25.07000000    33.74000000
   H     53.53000000    24.90000000    34.84000000
   H     51.80000000    24.98000000    35.39000000
   H     50.83000000    28.79000000    32.97000000
   H     52.32000000    28.03000000    32.51000000
   H     50.92000000    26.96000000    32.79000000
   N     55.23000000    25.97000000    37.47000000
   C     55.86000000    24.79000000    38.01000000
   C     56.40000000    24.94000000    39.43000000
   O     56.97000000    23.98000000    39.95000000
   C     56.86000000    24.21000000    37.01000000
   C     57.88000000    25.21000000    36.48000000
   O     58.76000000    24.75000000    35.71000000
   O     57.98000000    26.40000000    36.85000000
   H     55.83000000    26.67000000    37.05000000
   H     55.09000000    24.04000000    38.18000000
   H     56.25000000    23.88000000    36.18000000
   H     57.39000000    23.33000000    37.37000000
   N     56.21000000    26.13000000    40.00000000
   C     56.29000000    26.35000000    41.43000000
   C     57.68000000    26.78000000    41.87000000
   O     58.12000000    26.31000000    42.92000000
   H     55.96000000    26.93000000    39.43000000
   H     56.10000000    25.40000000    41.93000000
   H     55.54000000    27.13000000    41.60000000
   N     58.34000000    27.61000000    41.06000000
   C     59.74000000    27.97000000    41.21000000
   C     59.91000000    29.43000000    41.61000000
   O     61.00000000    29.81000000    42.04000000
   C     60.60000000    27.52000000    40.04000000
   C     60.32000000    28.28000000    38.75000000
   O     60.80000000    27.82000000    37.70000000
   O     59.49000000    29.22000000    38.67000000
   H     57.88000000    28.08000000    40.30000000
   H     60.12000000    27.41000000    42.06000000
   H     60.41000000    26.46000000    39.91000000
   H     61.66000000    27.60000000    40.31000000
   N     58.83000000    30.21000000    41.58000000
   C     58.86000000    31.62000000    41.93000000
   C     59.47000000    32.45000000    40.82000000
   O     59.67000000    33.62000000    41.15000000
   H     57.94000000    29.84000000    41.27000000
   H     59.48000000    31.82000000    42.81000000
   H     57.88000000    32.06000000    42.10000000
   N     59.49000000    32.07000000    39.54000000
   C     59.92000000    32.88000000    38.42000000
   C     59.40000000    32.47000000    37.05000000
   O     58.92000000    31.35000000    36.88000000
   C     61.43000000    32.99000000    38.32000000
   C     62.18000000    31.67000000    38.12000000
   C     63.67000000    31.82000000    38.39000000
   N     64.53000000    30.83000000    38.15000000
   O     64.20000000    32.91000000    38.58000000
   H     59.12000000    31.15000000    39.31000000
   H     59.54000000    33.90000000    38.57000000
   H     61.74000000    33.46000000    39.26000000
   H     61.74000000    33.56000000    37.45000000
   H     61.96000000    31.44000000    37.08000000
   H     61.73000000    30.88000000    38.73000000
   H     64.19000000    29.97000000    37.75000000
   H     65.51000000    31.01000000    38.34000000
   N     59.34000000    33.39000000    36.10000000
   C     58.77000000    33.20000000    34.78000000
   C     59.81000000    33.15000000    33.66000000
   O     60.75000000    33.94000000    33.58000000
   C     57.63000000    34.16000000    34.47000000
   C     56.53000000    34.17000000    35.53000000
   C     57.97000000    35.64000000    34.36000000
   H     59.46000000    34.34000000    36.43000000
   H     58.25000000    32.24000000    34.80000000
   H     57.28000000    33.92000000    33.47000000
   H     56.81000000    34.75000000    36.41000000
   H     55.60000000    34.59000000    35.15000000
   H     56.29000000    33.16000000    35.87000000
   H     57.07000000    36.21000000    34.17000000
   H     58.15000000    36.05000000    35.35000000
   H     58.82000000    35.79000000    33.69000000
   N     59.69000000    32.18000000    32.75000000
   C     60.30000000    32.10000000    31.44000000
   C     59.44000000    32.89000000    30.46000000
   O     58.38000000    33.37000000    30.84000000
   C     60.57000000    30.67000000    30.98000000
   C     59.36000000    29.97000000    30.39000000
   N     58.58000000    29.18000000    31.13000000
   O     59.23000000    30.07000000    29.17000000
   H     58.88000000    31.61000000    32.94000000
   H     61.21000000    32.71000000    31.43000000
   H     60.98000000    30.05000000    31.78000000
   H     61.37000000    30.70000000    30.24000000
   H     58.63000000    29.28000000    32.14000000
   H     57.71000000    28.81000000    30.77000000
   N     59.74000000    33.05000000    29.17000000
   C     59.00000000    33.82000000    28.19000000
   C     57.59000000    33.28000000    28.04000000
   O     56.63000000    34.04000000    28.10000000
   C     59.80000000    33.81000000    26.88000000
   C     59.08000000    34.69000000    25.89000000
   C     59.24000000    36.08000000    26.00000000
   C     58.28000000    34.19000000    24.86000000
   C     58.73000000    36.98000000    25.07000000
   C     57.76000000    35.10000000    23.93000000
   C     57.88000000    36.49000000    24.06000000
   O     57.25000000    37.37000000    23.22000000
   H     60.53000000    32.51000000    28.84000000
   H     58.97000000    34.85000000    28.55000000
   H     59.79000000    32.79000000    26.51000000
   H     60.78000000    34.24000000    27.08000000
   H     59.82000000    36.40000000    26.86000000
   H     58.01000000    33.14000000    24.89000000
   H     58.86000000    38.05000000    25.18000000
   H     57.09000000    34.72000000    23.17000000
   H     56.54000000    36.95000000    22.73000000
   N     57.35000000    31.97000000    27.98000000
   C     56.05000000    31.35000000    27.77000000
   C     55.13000000    31.29000000    28.98000000
   O     53.93000000    31.06000000    28.89000000
   C     56.35000000    29.98000000    27.17000000
   C     57.04000000    30.09000000    25.82000000
   C     57.31000000    28.76000000    25.12000000
   O     57.16000000    28.64000000    23.88000000
   O     57.79000000    27.82000000    25.79000000
   H     58.11000000    31.31000000    27.98000000
   H     55.52000000    31.92000000    27.00000000
   H     55.43000000    29.41000000    27.05000000
   H     56.99000000    29.39000000    27.83000000
   H     57.99000000    30.61000000    25.84000000
   H     56.39000000    30.57000000    25.08000000
   N     55.69000000    31.63000000    30.14000000
   C     55.01000000    32.09000000    31.33000000
   C     54.82000000    33.60000000    31.48000000
   O     53.83000000    34.14000000    31.97000000
   C     55.62000000    31.54000000    32.61000000
   C     55.67000000    30.02000000    32.73000000
   C     56.63000000    29.64000000    33.85000000
   O     57.83000000    30.00000000    33.85000000
   O     56.29000000    28.74000000    34.64000000
   H     56.70000000    31.72000000    30.11000000
   H     53.97000000    31.74000000    31.31000000
   H     55.15000000    31.92000000    33.51000000
   H     56.65000000    31.90000000    32.57000000
   H     55.83000000    29.52000000    31.77000000
   H     54.70000000    29.60000000    32.98000000
   N     55.75000000    34.39000000    30.94000000
   C     55.83000000    35.84000000    30.97000000
   H     56.72900000    36.16500000    30.44600000
   H     54.95200000    36.26300000    30.48100000
   H     55.87000000    36.18100000    32.00500000
   H     56.52000000    33.84000000    30.59000000
  Ca     58.61000000    28.81000000    36.17000000
   O     60.90000000    29.40000000    35.09000000
   H     61.36000000    28.59000000    34.89000000
   H     61.51000000    29.89000000    35.64000000
   O     59.03000000    26.91000000    34.19000000
   H     59.11000000    26.61000000    33.28000000
   H     58.87000000    26.12000000    34.70000000

Ca 1.00



