%chk=loop3.apoCaM-CA-Ng.Init295.run34.water3.chk
%nprocshared=20
%mem=10GB
%nosave
#b3lyp/svp scf=(tight,noincore,xqc) Test 
#IOP(5/87=12) Density=Current Pop=(MK,readradii) iop(6/33=2) iop(6/42=6)

loop3.apoCaM-CA-Ng.Init295.run34.water3 

   0  1 
   C     97.42000000    41.48000000    66.68000000
   C     97.92000000    40.49000000    67.72000000
   O     98.24000000    40.85000000    68.85000000
   H     96.52400000    41.97600000    67.05300000
   H     98.19200000    42.22400000    66.48500000
   H     97.18400000    40.95000000    65.75700000
   N     97.76000000    39.19000000    67.44000000
   C     97.78000000    38.04000000    68.31000000
   C     98.85000000    37.02000000    67.98000000
   O     99.03000000    36.79000000    66.79000000
   C     96.37000000    37.44000000    68.38000000
   C     96.25000000    36.44000000    69.52000000
   O     95.59000000    36.72000000    70.55000000
   O     96.83000000    35.34000000    69.52000000
   H     97.42000000    39.03000000    66.50000000
   H     97.84000000    38.38000000    69.34000000
   H     95.99000000    37.10000000    67.41000000
   H     95.75000000    38.24000000    68.75000000
   N     99.52000000    36.44000000    68.99000000
   C    100.51000000    35.41000000    68.74000000
   C    100.02000000    34.10000000    68.14000000
   O    100.81000000    33.46000000    67.45000000
   C    101.24000000    35.16000000    70.06000000
   C    102.23000000    36.20000000    70.58000000
   C    102.39000000    36.29000000    72.09000000
   C    103.32000000    37.47000000    72.38000000
   N    103.74000000    37.50000000    73.79000000
   H     99.43000000    36.88000000    69.89000000
   H    101.26000000    35.77000000    68.03000000
   H    101.83000000    34.24000000    70.09000000
   H    100.50000000    35.09000000    70.85000000
   H    101.84000000    37.15000000    70.22000000
   H    103.15000000    35.97000000    70.03000000
   H    102.83000000    35.42000000    72.57000000
   H    101.41000000    36.44000000    72.55000000
   H    102.88000000    38.44000000    72.16000000
   H    104.13000000    37.51000000    71.65000000
   H    104.23000000    36.68000000    74.11000000
   H    104.38000000    38.23000000    74.05000000
   H    103.00000000    37.71000000    74.45000000
   N     98.73000000    33.77000000    68.23000000
   C     98.11000000    32.57000000    67.71000000
   C     97.14000000    32.93000000    66.59000000
   O     96.96000000    32.22000000    65.60000000
   C     97.54000000    31.58000000    68.72000000
   C     96.56000000    32.22000000    69.68000000
   O     95.70000000    32.97000000    69.17000000
   O     96.46000000    31.88000000    70.88000000
   H     98.21000000    34.45000000    68.77000000
   H     98.87000000    32.03000000    67.16000000
   H     98.35000000    31.18000000    69.34000000
   H     97.16000000    30.73000000    68.14000000
   N     96.59000000    34.14000000    66.61000000
   C     95.56000000    34.60000000    65.69000000
   C     94.17000000    34.62000000    66.32000000
   O     93.32000000    35.12000000    65.59000000
   H     96.66000000    34.57000000    67.52000000
   H     95.58000000    33.91000000    64.85000000
   H     95.86000000    35.55000000    65.26000000
   N     93.88000000    34.21000000    67.55000000
   C     92.52000000    34.21000000    68.06000000
   C     92.54000000    35.19000000    69.23000000
   O     93.33000000    35.01000000    70.15000000
   C     92.16000000    32.78000000    68.47000000
   C     92.05000000    31.85000000    67.27000000
   N     90.85000000    31.53000000    66.80000000
   O     93.09000000    31.54000000    66.69000000
   H     94.57000000    33.67000000    68.05000000
   H     91.77000000    34.55000000    67.35000000
   H     91.22000000    32.84000000    69.02000000
   H     92.86000000    32.38000000    69.20000000
   H     89.99000000    31.83000000    67.23000000
   H     90.81000000    30.90000000    66.01000000
   N     91.64000000    36.17000000    69.21000000
   C     91.67000000    37.40000000    69.99000000
   C     91.69000000    37.25000000    71.50000000
   O     92.07000000    38.18000000    72.21000000
   H     90.98000000    36.32000000    68.46000000
   H     90.78000000    37.91000000    69.64000000
   H     92.55000000    38.01000000    69.75000000
   N     91.22000000    36.14000000    72.08000000
   C     91.46000000    35.84000000    73.48000000
   C     92.93000000    35.82000000    73.86000000
   O     93.85000000    35.31000000    73.23000000
   C     90.75000000    34.53000000    73.83000000
   C     89.27000000    34.64000000    73.56000000
   C     88.49000000    35.35000000    74.49000000
   C     88.70000000    34.10000000    72.40000000
   C     87.10000000    35.35000000    74.33000000
   C     87.31000000    34.13000000    72.30000000
   C     86.46000000    34.84000000    73.18000000
   O     85.11000000    34.96000000    73.07000000
   H     90.84000000    35.43000000    71.46000000
   H     90.93000000    36.62000000    74.02000000
   H     90.95000000    34.18000000    74.84000000
   H     91.08000000    33.79000000    73.11000000
   H     88.91000000    35.92000000    75.31000000
   H     89.32000000    33.54000000    71.72000000
   H     86.55000000    35.98000000    75.01000000
   H     86.90000000    33.59000000    71.46000000
   H     84.89000000    34.45000000    72.28000000
   N     93.09000000    36.46000000    75.02000000
   C     94.24000000    36.65000000    75.88000000
   C     95.02000000    35.39000000    76.23000000
   O     94.65000000    34.30000000    75.81000000
   C     95.14000000    37.78000000    75.40000000
   C     94.46000000    39.12000000    75.11000000
   C     96.12000000    37.43000000    74.29000000
   C     93.56000000    39.72000000    76.18000000
   H     92.17000000    36.77000000    75.32000000
   H     93.69000000    36.89000000    76.79000000
   H     95.83000000    38.01000000    76.22000000
   H     93.75000000    39.04000000    74.29000000
   H     95.17000000    39.88000000    74.79000000
   H     96.73000000    38.28000000    74.00000000
   H     96.85000000    36.74000000    74.73000000
   H     95.60000000    37.11000000    73.39000000
   H     92.77000000    39.01000000    76.45000000
   H     94.17000000    39.92000000    77.06000000
   H     93.10000000    40.61000000    75.74000000
   N     96.13000000    35.51000000    76.95000000
   C     96.93000000    34.44000000    77.53000000
   C     96.44000000    33.89000000    78.86000000
   O     96.41000000    32.68000000    79.05000000
   C     98.39000000    34.84000000    77.72000000
   O     98.40000000    36.04000000    78.45000000
   H     96.22000000    36.44000000    77.34000000
   H     96.89000000    33.56000000    76.89000000
   H     98.83000000    35.04000000    76.74000000
   H     98.99000000    34.05000000    78.17000000
   H     99.27000000    36.42000000    78.61000000
   N     95.98000000    34.77000000    79.75000000
   C     95.49000000    34.43000000    81.07000000
   C     96.45000000    33.49000000    81.80000000
   O     96.10000000    32.37000000    82.18000000
   C     94.03000000    34.00000000    80.98000000
   H     96.03000000    35.74000000    79.47000000
   H     95.58000000    35.33000000    81.68000000
   H     93.84000000    33.64000000    82.00000000
   H     93.35000000    34.79000000    80.65000000
   H     93.78000000    33.20000000    80.29000000
   N     97.69000000    33.85000000    82.11000000
   C     98.33000000    35.14000000    81.97000000
   C     98.00000000    36.05000000    83.15000000
   O     98.00000000    35.57000000    84.28000000
   C     99.83000000    34.86000000    82.06000000
   H     98.20000000    33.17000000    82.65000000
   H     98.23000000    35.61000000    80.99000000
   H    100.08000000    34.26000000    82.94000000
   H    100.14000000    34.22000000    81.24000000
   H    100.49000000    35.71000000    81.88000000
   N     97.78000000    37.36000000    83.13000000
   C     97.65000000    38.22000000    81.97000000
   C     96.46000000    39.16000000    82.14000000
   O     95.79000000    39.42000000    81.14000000
   C     98.94000000    38.87000000    81.51000000
   C     99.46000000    39.95000000    82.46000000
   C    100.79000000    40.57000000    82.08000000
   O    101.82000000    40.59000000    82.80000000
   O    100.88000000    40.96000000    80.89000000
   H     97.83000000    37.79000000    84.05000000
   H     97.23000000    37.51000000    81.26000000
   H     98.80000000    39.32000000    80.53000000
   H     99.70000000    38.10000000    81.39000000
   H     99.70000000    39.45000000    83.40000000
   H     98.65000000    40.66000000    82.64000000
   N     96.24000000    39.64000000    83.36000000
   C     95.16000000    40.55000000    83.69000000
   H     94.28300000    39.97800000    83.99300000
   H     95.46900000    41.20000000    84.50800000
   H     94.91400000    41.15500000    82.81700000
   H     96.92000000    39.48000000    84.09000000
  Ca     95.46000000    34.27000000    71.49000000
   O     97.76000000    35.04000000    72.57000000
   H     98.25000000    35.80000000    72.28000000
   H     98.37000000    34.56000000    73.13000000
   O     93.55000000    32.45000000    72.21000000
   H     93.17000000    32.43000000    73.09000000
   H     92.93000000    31.95000000    71.68000000
   O     96.11000000    33.08000000    73.94000000
   H     97.02000000    33.37000000    73.99000000
   H     95.70000000    33.44000000    74.73000000

Ca 1.00



