%chk=loop1.holoCaM-CaMKII.run64.water2.chk
%nprocshared=20
%mem=10GB
%nosave
#b3lyp/svp scf=(tight,noincore,xqc) Test 
#IOP(5/87=12) Density=Current Pop=(MK,readradii) iop(6/33=2) iop(6/42=6)

loop1.holoCaM-CaMKII.run64.water2 

   0  1 
   C     25.28000000    51.79000000    99.58100000
   C     24.85000000    52.98000000   100.42100000
   O     24.02000000    53.76000000    99.95100000
   H     26.28200000    51.48000000    99.87700000
   H     24.58500000    50.96500000    99.73600000
   H     25.28300000    52.07000000    98.52800000
   N     25.37000000    53.23000000   101.63100000
   C     25.00000000    54.30000000   102.53100000
   C     25.71000000    55.57000000   102.10100000
   O     26.56000000    56.02000000   102.87100000
   C     25.35000000    53.80000000   103.93100000
   C     24.81000000    54.80000000   104.95100000
   O     25.49000000    54.91000000   105.99100000
   O     23.73000000    55.38000000   104.71100000
   H     25.92000000    52.45000000   101.95100000
   H     23.95000000    54.57000000   102.44100000
   H     26.43000000    53.68000000   104.02100000
   H     24.99000000    52.79000000   104.11100000
   N     25.33000000    56.14000000   100.95100000
   C     25.86000000    57.37000000   100.40100000
   C     26.01000000    58.54000000   101.36100000
   O     26.87000000    59.36000000   101.07100000
   C     25.02000000    57.77000000    99.19100000
   C     24.51000000    56.71000000    98.21100000
   C     25.65000000    55.92000000    97.58100000
   C     25.24000000    55.39000000    96.21100000
   N     26.26000000    54.51000000    95.61100000
   H     24.71000000    55.52000000   100.47100000
   H     26.90000000    57.23000000   100.12100000
   H     25.62000000    58.51000000    98.65100000
   H     24.19000000    58.38000000    99.53100000
   H     23.92000000    57.20000000    97.44100000
   H     23.87000000    56.01000000    98.75100000
   H     25.71000000    54.99000000    98.14100000
   H     26.61000000    56.44000000    97.50100000
   H     25.15000000    56.26000000    95.55100000
   H     24.32000000    54.82000000    96.32100000
   H     26.16000000    54.32000000    94.63100000
   H     27.17000000    54.97000000    95.59100000
   H     26.38000000    53.68000000    96.17100000
   N     25.26000000    58.56000000   102.47100000
   C     25.16000000    59.61000000   103.46100000
   C     25.40000000    59.24000000   104.92100000
   O     25.05000000    59.98000000   105.84100000
   C     23.85000000    60.38000000   103.29100000
   C     22.58000000    59.54000000   103.18100000
   O     22.43000000    58.41000000   103.69100000
   O     21.65000000    60.03000000   102.51100000
   H     24.73000000    57.71000000   102.62100000
   H     25.93000000    60.34000000   103.20100000
   H     23.87000000    60.85000000   102.31100000
   H     23.75000000    61.12000000   104.08100000
   N     26.10000000    58.14000000   105.17100000
   C     26.96000000    57.91000000   106.32100000
   C     26.33000000    57.80000000   107.71100000
   O     27.07000000    58.19000000   108.61100000
   H     26.28000000    57.45000000   104.46100000
   H     27.68000000    58.73000000   106.31100000
   H     27.45000000    56.96000000   106.11100000
   N     25.11000000    57.29000000   107.80100000
   C     24.31000000    57.28000000   109.01100000
   C     24.26000000    55.89000000   109.64100000
   O     23.60000000    55.66000000   110.65100000
   C     22.94000000    57.91000000   108.81100000
   C     22.14000000    57.36000000   107.64100000
   O     22.03000000    56.13000000   107.46100000
   O     21.49000000    58.10000000   106.86100000
   H     24.60000000    56.99000000   106.98100000
   H     24.86000000    57.93000000   109.69100000
   H     23.03000000    58.98000000   108.64100000
   H     22.35000000    57.88000000   109.73100000
   N     24.95000000    54.88000000   109.09100000
   C     24.92000000    53.55000000   109.65100000
   C     23.65000000    52.84000000   109.20100000
   O     23.30000000    51.80000000   109.76100000
   H     25.24000000    55.06000000   108.14100000
   H     24.91000000    53.74000000   110.73100000
   H     25.74000000    52.88000000   109.40100000
   N     22.86000000    53.30000000   108.24100000
   C     21.66000000    52.68000000   107.71100000
   C     21.25000000    52.83000000   106.25100000
   O     21.15000000    53.91000000   105.66100000
   C     20.45000000    53.20000000   108.49100000
   C     20.31000000    52.42000000   109.79100000
   O     20.41000000    54.60000000   108.66100000
   H     23.01000000    54.23000000   107.86100000
   H     21.80000000    51.63000000   107.93100000
   H     19.55000000    52.92000000   107.94100000
   H     21.29000000    54.97000000   108.53100000
   H     21.13000000    52.52000000   110.49100000
   H     19.41000000    52.78000000   110.29100000
   H     20.09000000    51.37000000   109.58100000
   N     20.84000000    51.73000000   105.63100000
   C     20.61000000    51.65000000   104.20100000
   C     19.10000000    51.46000000   104.09100000
   O     18.52000000    50.51000000   104.60100000
   C     21.45000000    50.54000000   103.56100000
   C     22.96000000    50.78000000   103.64100000
   C     20.94000000    50.29000000   102.15100000
   C     23.63000000    49.45000000   103.29100000
   H     20.67000000    50.88000000   106.15100000
   H     20.86000000    52.56000000   103.66100000
   H     21.35000000    49.64000000   104.16100000
   H     23.33000000    51.01000000   104.64100000
   H     23.27000000    51.60000000   103.00100000
   H     21.02000000    51.13000000   101.45100000
   H     21.39000000    49.40000000   101.71100000
   H     19.91000000    49.97000000   102.06100000
   H     23.16000000    48.68000000   103.90100000
   H     23.36000000    49.30000000   102.25100000
   H     24.71000000    49.61000000   103.28100000
   N     18.43000000    52.34000000   103.34100000
   C     17.01000000    52.48000000   103.09100000
   C     16.74000000    51.71000000   101.81100000
   O     17.66000000    51.40000000   101.06100000
   C     16.65000000    53.94000000   102.85100000
   C     16.85000000    54.71000000   104.15100000
   O     17.43000000    54.67000000   101.92100000
   H     18.98000000    53.06000000   102.90100000
   H     16.51000000    52.00000000   103.93100000
   H     15.60000000    54.00000000   102.58100000
   H     18.31000000    54.75000000   102.29100000
   H     16.61000000    55.76000000   103.99100000
   H     16.14000000    54.31000000   104.89100000
   H     17.89000000    54.68000000   104.46100000
   N     15.45000000    51.48000000   101.55100000
   C     14.92000000    50.88000000   100.34100000
   C     15.40000000    51.72000000    99.16100000
   O     15.89000000    51.12000000    98.20100000
   C     13.40000000    50.72000000   100.24100000
   C     12.70000000    49.84000000   101.27100000
   O     12.91000000    52.05000000   100.28100000
   H     14.79000000    51.66000000   102.30100000
   H     15.41000000    49.93000000   100.16100000
   H     13.18000000    50.25000000    99.29100000
   H     12.17000000    52.05000000    99.67100000
   H     12.95000000    48.83000000   100.94100000
   H     13.06000000    50.22000000   102.22100000
   H     11.62000000    49.96000000   101.11100000
   N     15.37000000    53.05000000    99.22100000
   C     15.83000000    53.97000000    98.20100000
   C     17.33000000    53.87000000    97.96100000
   O     17.74000000    53.83000000    96.80100000
   C     15.30000000    55.39000000    98.40100000
   C     15.19000000    56.09000000    97.04100000
   C     14.91000000    57.57000000    97.30100000
   C     14.78000000    58.32000000    95.98100000
   N     14.55000000    59.76000000    96.21100000
   H     14.85000000    53.45000000    99.98100000
   H     15.37000000    53.67000000    97.26100000
   H     15.98000000    55.99000000    99.01100000
   H     14.36000000    55.46000000    98.94100000
   H     14.33000000    55.69000000    96.51100000
   H     16.02000000    55.97000000    96.35100000
   H     15.77000000    57.86000000    97.90100000
   H     13.94000000    57.61000000    97.79100000
   H     13.87000000    58.05000000    95.45100000
   H     15.68000000    58.09000000    95.42100000
   H     14.49000000    60.26000000    95.34100000
   H     13.74000000    59.91000000    96.78100000
   H     15.27000000    60.12000000    96.83100000
   N     18.14000000    53.69000000    99.00100000
   C     19.57000000    53.47000000    98.88100000
   C     19.90000000    52.10000000    98.30100000
   O     20.70000000    51.93000000    97.38100000
   C     20.30000000    53.68000000   100.21100000
   C     20.32000000    55.18000000   100.49100000
   C     20.76000000    55.39000000   101.93100000
   O     21.81000000    55.95000000   102.29100000
   O     19.96000000    55.05000000   102.82100000
   H     17.73000000    53.83000000    99.91100000
   H     19.87000000    54.26000000    98.19100000
   H     21.28000000    53.30000000    99.94100000
   H     19.79000000    53.07000000   100.95100000
   H     19.36000000    55.66000000   100.30100000
   H     21.09000000    55.64000000    99.87100000
   N     19.29000000    51.00000000    98.73100000
   C     19.46000000    49.65000000    98.23100000
   H     20.45000000    49.28400000    98.50400000
   H     18.70100000    49.00200000    98.66800000
   H     19.35900000    49.64800000    97.14600000
   H     18.68000000    51.25000000    99.49100000
  Ca     21.30000000    56.31000000   104.80100000
   O     19.34000000    56.01000000   106.52100000
   H     19.84000000    55.84000000   107.32100000
   H     18.52000000    56.39000000   106.83100000
   O     19.27000000    57.96000000   104.29100000
   H     18.74000000    58.60000000   104.77100000
   H     18.68000000    57.62000000   103.61100000

Ca 1.00



