%chk=loop2.apoCaM-CA-Ng.Init293.run18.water6.chk
%nprocshared=20
%mem=10GB
%nosave
#b3lyp/svp scf=(tight,noincore,xqc) Test 
#IOP(5/87=12) Density=Current Pop=(MK,readradii) iop(6/33=2) iop(6/42=6)

loop2.apoCaM-CA-Ng.Init293.run18.water6 

   -2  1 
   C     51.99000000   -10.79000000    41.90000000
   C     51.80000000   -11.70000000    43.11000000
   O     52.11000000   -11.31000000    44.23000000
   H     53.03500000   -10.81300000    41.58900000
   H     51.36000000   -11.13700000    41.08100000
   H     51.71300000    -9.77000000    42.16500000
   N     51.23000000   -12.89000000    42.90000000
   C     50.94000000   -13.96000000    43.84000000
   C     52.28000000   -14.58000000    44.18000000
   O     52.62000000   -14.62000000    45.37000000
   C     49.86000000   -14.90000000    43.31000000
   C     49.80000000   -16.10000000    44.25000000
   O     50.41000000   -17.14000000    43.92000000
   O     49.15000000   -16.01000000    45.31000000
   H     50.88000000   -13.02000000    41.96000000
   H     50.62000000   -13.52000000    44.78000000
   H     50.04000000   -15.13000000    42.26000000
   H     48.90000000   -14.40000000    43.27000000
   N     53.03000000   -15.08000000    43.20000000
   C     54.42000000   -15.42000000    43.40000000
   C     55.19000000   -14.49000000    44.33000000
   O     56.22000000   -14.90000000    44.85000000
   C     54.49000000   -16.88000000    43.81000000
   H     52.68000000   -15.23000000    42.26000000
   H     55.01000000   -15.37000000    42.48000000
   H     53.86000000   -17.58000000    43.25000000
   H     55.47000000   -17.35000000    43.72000000
   H     54.20000000   -16.97000000    44.86000000
   N     54.79000000   -13.22000000    44.49000000
   C     55.43000000   -12.30000000    45.41000000
   C     55.34000000   -12.76000000    46.86000000
   O     56.31000000   -12.64000000    47.60000000
   C     56.81000000   -11.81000000    44.98000000
   C     56.81000000   -11.17000000    43.60000000
   O     56.16000000   -10.11000000    43.46000000
   O     57.46000000   -11.71000000    42.67000000
   H     53.91000000   -13.00000000    44.05000000
   H     54.79000000   -11.43000000    45.49000000
   H     57.61000000   -12.55000000    45.06000000
   H     57.09000000   -11.07000000    45.74000000
   N     54.22000000   -13.41000000    47.19000000
   C     53.92000000   -13.89000000    48.52000000
   C     53.61000000   -12.70000000    49.41000000
   O     53.16000000   -11.65000000    48.96000000
   H     53.46000000   -13.53000000    46.53000000
   H     54.78000000   -14.37000000    48.99000000
   H     53.11000000   -14.62000000    48.48000000
   N     53.98000000   -12.95000000    50.67000000
   C     53.92000000   -12.06000000    51.81000000
   C     52.58000000   -11.34000000    51.74000000
   O     52.52000000   -10.15000000    51.41000000
   C     55.15000000   -11.14000000    51.84000000
   C     56.47000000   -11.90000000    51.79000000
   N     57.08000000   -12.18000000    50.64000000
   O     57.01000000   -12.30000000    52.82000000
   H     54.43000000   -13.85000000    50.79000000
   H     53.96000000   -12.74000000    52.65000000
   H     55.14000000   -10.60000000    52.79000000
   H     55.16000000   -10.37000000    51.07000000
   H     56.52000000   -12.02000000    49.82000000
   H     57.91000000   -12.75000000    50.75000000
   N     51.47000000   -12.04000000    51.91000000
   C     50.14000000   -11.47000000    51.99000000
   C     49.52000000   -10.90000000    50.72000000
   O     48.50000000   -10.21000000    50.70000000
   H     51.60000000   -13.04000000    52.03000000
   H     50.21000000   -10.67000000    52.73000000
   H     49.52000000   -12.22000000    52.48000000
   N     50.24000000   -11.03000000    49.60000000
   C     49.88000000   -10.50000000    48.30000000
   C     50.36000000    -9.08000000    48.07000000
   O     51.49000000    -8.73000000    48.41000000
   C     50.45000000   -11.43000000    47.23000000
   C     50.17000000   -12.92000000    47.43000000
   O     49.81000000   -11.25000000    45.99000000
   H     51.17000000   -11.42000000    49.57000000
   H     48.80000000   -10.50000000    48.14000000
   H     51.52000000   -11.25000000    47.13000000
   H     50.55000000   -11.19000000    45.37000000
   H     49.09000000   -13.05000000    47.43000000
   H     50.79000000   -13.46000000    46.72000000
   H     50.51000000   -13.30000000    48.39000000
   N     49.60000000    -8.19000000    47.44000000
   C     49.93000000    -6.83000000    47.07000000
   C     51.28000000    -6.78000000    46.37000000
   O     51.55000000    -7.57000000    45.47000000
   C     48.77000000    -6.21000000    46.29000000
   C     48.95000000    -4.70000000    46.21000000
   C     48.49000000    -6.86000000    44.94000000
   C     47.91000000    -3.82000000    45.51000000
   H     48.86000000    -8.61000000    46.90000000
   H     50.00000000    -6.21000000    47.96000000
   H     47.90000000    -6.45000000    46.89000000
   H     49.90000000    -4.48000000    45.72000000
   H     48.99000000    -4.32000000    47.23000000
   H     47.68000000    -6.44000000    44.34000000
   H     49.33000000    -6.73000000    44.25000000
   H     48.43000000    -7.95000000    44.95000000
   H     47.68000000    -4.25000000    44.53000000
   H     46.99000000    -3.75000000    46.08000000
   H     48.18000000    -2.77000000    45.41000000
   N     52.07000000    -5.74000000    46.68000000
   C     53.29000000    -5.47000000    45.95000000
   C     54.55000000    -5.18000000    46.77000000
   O     55.63000000    -5.15000000    46.19000000
   C     53.03000000    -4.46000000    44.84000000
   C     54.13000000    -4.48000000    43.79000000
   O     54.74000000    -5.52000000    43.48000000
   O     54.45000000    -3.40000000    43.25000000
   H     51.65000000    -5.07000000    47.30000000
   H     53.53000000    -6.45000000    45.54000000
   H     52.96000000    -3.50000000    45.35000000
   H     52.10000000    -4.83000000    44.41000000
   N     54.38000000    -5.27000000    48.09000000
   C     55.43000000    -5.64000000    49.01000000
   C     55.55000000    -4.76000000    50.25000000
   O     56.66000000    -4.46000000    50.68000000
   C     55.17000000    -7.09000000    49.40000000
   C     56.17000000    -7.66000000    50.37000000
   C     57.12000000    -8.58000000    49.88000000
   C     56.11000000    -7.39000000    51.74000000
   C     58.08000000    -9.10000000    50.76000000
   C     57.02000000    -8.01000000    52.61000000
   C     58.04000000    -8.84000000    52.13000000
   H     53.45000000    -5.39000000    48.46000000
   H     56.39000000    -5.52000000    48.49000000
   H     55.14000000    -7.74000000    48.52000000
   H     54.22000000    -7.21000000    49.92000000
   H     57.08000000    -8.73000000    48.82000000
   H     55.27000000    -6.80000000    52.08000000
   H     58.74000000    -9.79000000    50.26000000
   H     56.86000000    -7.95000000    53.67000000
   H     58.87000000    -9.12000000    52.77000000
   N     54.42000000    -4.38000000    50.83000000
   C     53.05000000    -4.40000000    50.34000000
   C     52.76000000    -3.37000000    49.26000000
   O     51.82000000    -3.40000000    48.47000000
   C     52.23000000    -3.90000000    51.52000000
   C     53.10000000    -3.96000000    52.77000000
   C     54.49000000    -3.82000000    52.17000000
   H     52.66000000    -5.34000000    49.95000000
   H     51.95000000    -2.85000000    51.41000000
   H     51.33000000    -4.51000000    51.55000000
   H     52.91000000    -3.13000000    53.44000000
   H     52.91000000    -4.90000000    53.29000000
   H     54.67000000    -2.75000000    52.08000000
   H     55.24000000    -4.35000000    52.75000000
   N     53.46000000    -2.24000000    49.32000000
   C     53.35000000    -1.02000000    48.55000000
   C     53.72000000    -1.08000000    47.07000000
   O     54.59000000    -1.88000000    46.72000000
   C     54.13000000     0.05000000    49.31000000
   C     53.31000000     0.58000000    50.48000000
   C     54.12000000     1.60000000    51.28000000
   O     54.57000000     1.28000000    52.40000000
   O     54.32000000     2.70000000    50.72000000
   H     54.04000000    -2.23000000    50.15000000
   H     52.31000000    -0.71000000    48.63000000
   H     54.48000000     0.78000000    48.58000000
   H     55.01000000    -0.49000000    49.65000000
   H     53.00000000    -0.23000000    51.13000000
   H     52.44000000     1.00000000    49.99000000
   N     53.01000000    -0.32000000    46.24000000
   C     52.85000000    -0.61000000    44.83000000
   H     52.20600000     0.14300000    44.37500000
   H     53.82500000    -0.59600000    44.34300000
   H     52.39700000    -1.59400000    44.71000000
   H     52.21000000     0.17000000    46.62000000
  Ca     56.35000000    -7.57700000    43.34000000
   O     53.84000000    -8.48700000    44.42000000
   H     52.99000000    -8.05700000    44.42000000
   H     53.75000000    -9.19700000    45.05000000
   O     57.75000000    -5.67700000    44.26000000
   H     57.18000000    -5.54700000    45.02000000
   H     58.43000000    -5.00700000    44.35000000
   O     58.72000000    -8.62700000    43.96000000
   H     59.45000000    -8.41700000    43.38000000
   H     59.13000000    -9.02700000    44.73000000
   O     55.07000000    -8.31700000    41.14000000
   H     55.03000000    -9.02700000    40.50000000
   H     54.50000000    -7.63700000    40.79000000
   O     56.28000000    -8.20700000    45.97000000
   H     55.59000000    -8.73700000    46.38000000
   H     56.85000000    -7.94700000    46.70000000
   O     58.09000000    -7.22700000    41.36000000
   H     59.03000000    -7.22700000    41.16000000
   H     57.66000000    -7.21700000    40.50000000

Ca 1.00



