%chk=loop1.apoCaM-CA-Ng.Init31.run4.water6.chk
%nprocshared=20
%mem=10GB
%nosave
#b3lyp/svp scf=(tight,noincore,xqc) Test 
#IOP(5/87=12) Density=Current Pop=(MK,readradii) iop(6/33=2) iop(6/42=6)

loop1.apoCaM-CA-Ng.Init31.run4.water6 

   0  1 
   C     50.16000000    57.50000000    -2.77000000
   C     48.70000000    57.62000000    -2.34000000
   O     47.88000000    57.69000000    -3.25000000
   H     50.78800000    57.37000000    -1.88900000
   H     50.27600000    56.63900000    -3.42800000
   H     50.45900000    58.40500000    -3.29900000
   N     48.36000000    57.57000000    -1.05000000
   C     46.99000000    57.46000000    -0.59000000
   C     46.29000000    58.81000000    -0.50000000
   O     46.86000000    59.81000000    -0.07000000
   C     47.00000000    56.74000000     0.76000000
   C     45.58000000    56.35000000     1.13000000
   O     44.87000000    55.92000000     0.20000000
   O     45.18000000    56.45000000     2.31000000
   H     49.10000000    57.69000000    -0.37000000
   H     46.55000000    56.87000000    -1.38000000
   H     47.41000000    57.40000000     1.52000000
   H     47.62000000    55.85000000     0.71000000
   N     45.05000000    58.82000000    -0.99000000
   C     44.18000000    59.96000000    -1.21000000
   C     43.22000000    60.00000000    -0.04000000
   O     43.16000000    60.94000000     0.76000000
   C     43.67000000    59.95000000    -2.65000000
   C     44.69000000    60.15000000    -3.76000000
   C     44.01000000    60.24000000    -5.13000000
   C     44.93000000    60.72000000    -6.26000000
   N     45.84000000    59.61000000    -6.57000000
   H     44.78000000    57.95000000    -1.43000000
   H     44.78000000    60.87000000    -1.11000000
   H     42.92000000    60.73000000    -2.77000000
   H     43.14000000    59.01000000    -2.80000000
   H     45.45000000    59.37000000    -3.74000000
   H     45.14000000    61.12000000    -3.56000000
   H     43.18000000    60.94000000    -5.04000000
   H     43.57000000    59.28000000    -5.39000000
   H     45.51000000    61.60000000    -5.98000000
   H     44.32000000    60.90000000    -7.14000000
   H     46.68000000    59.57000000    -6.02000000
   H     45.35000000    58.72000000    -6.66000000
   H     46.18000000    59.75000000    -7.51000000
   N     42.30000000    59.06000000     0.20000000
   C     41.97000000    57.78000000    -0.40000000
   C     41.62000000    56.78000000     0.69000000
   O     40.83000000    57.01000000     1.60000000
   C     40.78000000    58.08000000    -1.32000000
   C     40.63000000    57.10000000    -2.48000000
   O     39.74000000    57.37000000    -3.32000000
   O     41.32000000    56.06000000    -2.62000000
   H     41.63000000    59.19000000     0.94000000
   H     42.83000000    57.49000000    -0.99000000
   H     40.84000000    59.08000000    -1.73000000
   H     39.81000000    57.97000000    -0.83000000
   N     42.13000000    55.55000000     0.53000000
   C     41.67000000    54.46000000     1.36000000
   C     42.48000000    53.19000000     1.14000000
   O     41.89000000    52.12000000     1.04000000
   H     42.92000000    55.37000000    -0.08000000
   H     40.61000000    54.29000000     1.23000000
   H     41.76000000    54.67000000     2.43000000
   N     43.74000000    53.33000000     0.71000000
   C     44.62000000    52.24000000     0.35000000
   C     44.94000000    51.25000000     1.46000000
   O     44.18000000    51.08000000     2.41000000
   C     44.16000000    51.59000000    -0.95000000
   C     43.63000000    52.52000000    -2.04000000
   O     44.44000000    52.89000000    -2.91000000
   O     42.45000000    52.92000000    -2.16000000
   H     44.15000000    54.24000000     0.89000000
   H     45.57000000    52.69000000     0.03000000
   H     43.34000000    50.88000000    -0.79000000
   H     45.00000000    51.03000000    -1.36000000
   N     46.07000000    50.54000000     1.51000000
   C     47.22000000    50.36000000     0.65000000
   C     47.08000000    49.20000000    -0.32000000
   O     48.08000000    48.74000000    -0.87000000
   H     46.04000000    49.93000000     2.32000000
   H     48.11000000    50.14000000     1.25000000
   H     47.39000000    51.27000000     0.07000000
   N     45.85000000    48.68000000    -0.37000000
   C     45.37000000    47.49000000    -1.05000000
   C     46.24000000    46.27000000    -0.78000000
   O     46.93000000    45.71000000    -1.63000000
   C     45.05000000    47.81000000    -2.50000000
   C     46.15000000    48.39000000    -3.38000000
   O     43.98000000    48.73000000    -2.48000000
   H     45.21000000    49.21000000     0.21000000
   H     44.43000000    47.19000000    -0.59000000
   H     44.70000000    46.89000000    -2.97000000
   H     43.13000000    48.31000000    -2.61000000
   H     47.10000000    47.87000000    -3.29000000
   H     45.89000000    48.46000000    -4.43000000
   H     46.34000000    49.42000000    -3.07000000
   N     46.21000000    45.82000000     0.47000000
   C     46.74000000    44.62000000     1.08000000
   C     46.12000000    43.33000000     0.54000000
   O     45.71000000    42.49000000     1.34000000
   C     48.25000000    44.54000000     1.29000000
   C     48.86000000    45.84000000     1.80000000
   C     48.64000000    43.28000000     2.05000000
   C     50.38000000    45.87000000     1.88000000
   H     45.77000000    46.44000000     1.15000000
   H     46.38000000    44.64000000     2.11000000
   H     48.64000000    44.41000000     0.28000000
   H     48.52000000    46.02000000     2.82000000
   H     48.62000000    46.64000000     1.09000000
   H     48.15000000    43.22000000     3.02000000
   H     48.36000000    42.38000000     1.49000000
   H     49.72000000    43.21000000     2.16000000
   H     50.74000000    45.27000000     2.71000000
   H     50.88000000    45.46000000     1.00000000
   H     50.73000000    46.90000000     2.03000000
   N     46.23000000    43.07000000    -0.76000000
   C     45.73000000    41.91000000    -1.46000000
   C     46.80000000    41.08000000    -2.16000000
   O     47.91000000    41.56000000    -2.41000000
   C     44.68000000    42.28000000    -2.50000000
   C     45.13000000    43.29000000    -3.55000000
   O     43.48000000    42.60000000    -1.84000000
   H     46.30000000    43.91000000    -1.32000000
   H     45.23000000    41.21000000    -0.79000000
   H     44.38000000    41.42000000    -3.10000000
   H     42.90000000    41.93000000    -2.21000000
   H     45.22000000    44.27000000    -3.06000000
   H     46.14000000    43.11000000    -3.91000000
   H     44.36000000    43.38000000    -4.31000000
   N     46.45000000    39.88000000    -2.61000000
   C     47.20000000    39.02000000    -3.51000000
   C     47.39000000    39.71000000    -4.85000000
   O     46.52000000    40.42000000    -5.34000000
   C     46.57000000    37.63000000    -3.63000000
   C     45.30000000    37.49000000    -4.46000000
   O     47.56000000    36.74000000    -4.11000000
   H     45.50000000    39.59000000    -2.43000000
   H     48.23000000    38.94000000    -3.15000000
   H     46.35000000    37.43000000    -2.58000000
   H     48.10000000    36.50000000    -3.35000000
   H     44.50000000    38.19000000    -4.22000000
   H     45.62000000    37.69000000    -5.49000000
   H     44.96000000    36.46000000    -4.42000000
   N     48.58000000    39.58000000    -5.45000000
   C     48.91000000    40.17000000    -6.74000000
   C     48.42000000    41.60000000    -6.86000000
   O     47.70000000    41.95000000    -7.79000000
   C     48.51000000    39.26000000    -7.90000000
   C     49.23000000    37.92000000    -7.88000000
   C     48.78000000    37.00000000    -9.02000000
   C     49.55000000    35.69000000    -9.04000000
   N     48.85000000    34.73000000    -8.18000000
   H     49.33000000    39.04000000    -5.07000000
   H     50.00000000    40.21000000    -6.71000000
   H     48.90000000    39.74000000    -8.80000000
   H     47.43000000    39.12000000    -7.99000000
   H     48.92000000    37.47000000    -6.93000000
   H     50.31000000    37.94000000    -8.01000000
   H     48.99000000    37.53000000    -9.94000000
   H     47.70000000    36.91000000    -8.95000000
   H     50.57000000    35.83000000    -8.68000000
   H     49.65000000    35.34000000   -10.07000000
   H     48.97000000    34.97000000    -7.21000000
   H     47.85000000    34.66000000    -8.34000000
   H     49.22000000    33.81000000    -8.37000000
   N     48.93000000    42.46000000    -5.98000000
   C     48.62000000    43.88000000    -6.00000000
   C     48.57000000    44.68000000    -4.71000000
   O     48.19000000    45.85000000    -4.69000000
   C     49.49000000    44.49000000    -7.10000000
   C     49.20000000    45.91000000    -7.57000000
   C     50.13000000    46.22000000    -8.73000000
   O     49.58000000    46.46000000    -9.83000000
   O     51.37000000    46.27000000    -8.60000000
   H     49.61000000    42.05000000    -5.36000000
   H     47.58000000    43.93000000    -6.32000000
   H     49.40000000    43.86000000    -7.99000000
   H     50.55000000    44.33000000    -6.94000000
   H     49.31000000    46.58000000    -6.71000000
   H     48.17000000    46.01000000    -7.91000000
   N     49.04000000    44.21000000    -3.55000000
   C     50.21000000    43.42000000    -3.22000000
   H     51.01700000    44.08100000    -2.90400000
   H     49.96800000    42.73100000    -2.41100000
   H     50.52600000    42.85500000    -4.09700000
   H     48.52000000    44.61000000    -2.78000000
  Ca     42.79000000    54.65000000    -4.17200000
   O     44.48000000    55.94000000    -2.43200000
   H     44.57000000    55.90000000    -1.48200000
   H     45.31000000    55.62000000    -2.77200000
   O     45.06000000    54.07000000    -5.63200000
   H     45.79000000    54.56000000    -6.00200000
   H     45.26000000    53.15000000    -5.81200000
   O     41.35000000    52.27000000    -4.77200000
   H     40.47000000    52.10000000    -4.43100000
   H     41.74000000    51.41000000    -4.87200000
   O     43.98000000    56.68000000    -5.60200000
   H     43.96000000    56.86000000    -6.53200000
   H     44.91000000    56.55000000    -5.40100000
   O     40.24000000    55.27000000    -4.93200000
   H     39.56000000    54.81000000    -5.43200000
   H     39.77000000    55.98000000    -4.50200000
   O     42.25000000    54.20000000    -6.99200000
   H     41.67000000    54.60000000    -7.63200000
   H     42.69000000    53.50000000    -7.48200000

Ca 1.00



