%chk=loop3.apoCaM-CA-Ng.Init31.run27.water6.chk
%nprocshared=20
%mem=10GB
%nosave
#b3lyp/svp scf=(tight,noincore,xqc) Test 
#IOP(5/87=12) Density=Current Pop=(MK,readradii) iop(6/33=2) iop(6/42=6)

loop3.apoCaM-CA-Ng.Init31.run27.water6 

   0  1 
   C    101.07000000    45.29000000   103.88000000
   C    102.44000000    45.47000000   103.22000000
   O    102.70000000    45.07000000   102.09000000
   H    100.32400000    45.07800000   103.11400000
   H    101.11200000    44.46000000   104.58500000
   H    100.79800000    46.20400000   104.40900000
   N    103.35000000    46.10000000   103.97000000
   C    104.68000000    46.41000000   103.48000000
   C    105.69000000    45.29000000   103.65000000
   O    105.53000000    44.47000000   104.55000000
   C    105.19000000    47.66000000   104.21000000
   C    105.19000000    47.60000000   105.73000000
   O    106.14000000    46.99000000   106.26000000
   O    104.39000000    48.30000000   106.39000000
   H    103.10000000    46.41000000   104.89000000
   H    104.67000000    46.60000000   102.41000000
   H    104.63000000    48.52000000   103.86000000
   H    106.22000000    47.92000000   103.95000000
   N    106.77000000    45.38000000   102.87000000
   C    107.92000000    44.51000000   103.05000000
   C    107.76000000    43.13000000   102.43000000
   O    108.42000000    42.18000000   102.85000000
   C    109.20000000    45.21000000   102.59000000
   C    109.89000000    45.83000000   103.80000000
   C    109.15000000    46.97000000   104.49000000
   C    109.65000000    47.59000000   105.79000000
   N    108.67000000    48.58000000   106.29000000
   H    106.75000000    46.06000000   102.12000000
   H    108.05000000    44.27000000   104.10000000
   H    109.03000000    45.85000000   101.73000000
   H    109.86000000    44.42000000   102.23000000
   H    110.88000000    46.20000000   103.52000000
   H    110.15000000    45.10000000   104.56000000
   H    108.12000000    46.67000000   104.69000000
   H    109.04000000    47.76000000   103.75000000
   H    110.63000000    48.05000000   105.67000000
   H    109.71000000    46.77000000   106.50000000
   H    108.71000000    49.39000000   105.69000000
   H    107.74000000    48.23000000   106.43000000
   H    109.03000000    48.84000000   107.20000000
   N    106.75000000    42.92000000   101.58000000
   C    106.52000000    41.59000000   101.04000000
   C    106.16000000    41.67000000    99.56000000
   O    105.28000000    40.96000000    99.08000000
   C    105.50000000    40.81000000   101.87000000
   C    104.17000000    41.54000000   101.99000000
   O    103.67000000    42.22000000   101.07000000
   O    103.63000000    41.29000000   103.09000000
   H    106.14000000    43.67000000   101.29000000
   H    107.44000000    41.01000000   101.12000000
   H    105.96000000    40.65000000   102.84000000
   H    105.27000000    39.86000000   101.39000000
   N    106.79000000    42.59000000    98.82000000
   C    106.51000000    42.91000000    97.43000000
   C    105.25000000    43.72000000    97.19000000
   O    104.25000000    43.48000000    97.87000000
   H    107.55000000    43.12000000    99.20000000
   H    106.59000000    41.98000000    96.86000000
   H    107.39000000    43.45000000    97.06000000
   N    105.14000000    44.61000000    96.20000000
   C    106.01000000    44.68000000    95.04000000
   C    105.13000000    44.86000000    93.81000000
   O    104.30000000    45.75000000    93.67000000
   C    106.95000000    45.85000000    95.31000000
   C    108.05000000    45.87000000    94.25000000
   N    108.69000000    44.74000000    93.94000000
   O    108.35000000    46.90000000    93.66000000
   H    104.24000000    45.06000000    96.16000000
   H    106.59000000    43.77000000    94.90000000
   H    107.48000000    45.79000000    96.26000000
   H    106.45000000    46.81000000    95.26000000
   H    108.50000000    43.90000000    94.46000000
   H    109.47000000    44.80000000    93.31000000
   N    105.41000000    44.12000000    92.73000000
   C    106.24000000    42.95000000    92.56000000
   C    105.79000000    41.70000000    93.30000000
   O    105.31000000    41.72000000    94.44000000
   H    104.84000000    44.38000000    91.94000000
   H    107.30000000    43.08000000    92.78000000
   H    106.22000000    42.66000000    91.51000000
   N    105.75000000    40.61000000    92.54000000
   C    105.10000000    39.36000000    92.88000000
   C    105.78000000    38.17000000    92.20000000
   O    106.19000000    38.30000000    91.05000000
   C    103.68000000    39.29000000    92.33000000
   C    102.61000000    40.12000000    93.00000000
   C    101.78000000    39.53000000    93.95000000
   C    102.42000000    41.43000000    92.54000000
   C    100.74000000    40.31000000    94.47000000
   C    101.50000000    42.26000000    93.18000000
   C    100.55000000    41.63000000    94.01000000
   O     99.51000000    42.33000000    94.57000000
   H    106.17000000    40.64000000    91.62000000
   H    105.08000000    39.22000000    93.96000000
   H    103.40000000    38.24000000    92.41000000
   H    103.68000000    39.52000000    91.26000000
   H    101.84000000    38.48000000    94.20000000
   H    103.10000000    41.90000000    91.84000000
   H    100.02000000    39.98000000    95.20000000
   H    101.45000000    43.32000000    93.01000000
   H     99.35000000    43.23000000    94.27000000
   N    105.97000000    37.10000000    92.97000000
   C    106.51000000    35.83000000    92.52000000
   C    105.41000000    34.79000000    92.40000000
   O    105.70000000    33.68000000    91.95000000
   C    107.70000000    35.49000000    93.41000000
   C    107.19000000    35.05000000    94.78000000
   C    108.72000000    34.50000000    92.85000000
   C    107.75000000    35.98000000    95.86000000
   H    105.61000000    37.09000000    93.92000000
   H    106.79000000    36.13000000    91.51000000
   H    108.28000000    36.42000000    93.49000000
   H    107.45000000    34.01000000    94.97000000
   H    106.10000000    35.06000000    94.82000000
   H    109.54000000    34.45000000    93.56000000
   H    108.25000000    33.52000000    92.78000000
   H    109.10000000    34.87000000    91.90000000
   H    107.49000000    35.60000000    96.84000000
   H    108.84000000    36.00000000    95.78000000
   H    107.43000000    37.01000000    95.67000000
   N    104.16000000    35.04000000    92.78000000
   C    102.99000000    34.25000000    92.41000000
   C    102.86000000    33.10000000    93.40000000
   O    102.25000000    32.07000000    93.13000000
   C    101.75000000    35.13000000    92.29000000
   O    101.83000000    35.86000000    91.09000000
   H    103.98000000    35.91000000    93.25000000
   H    103.06000000    33.69000000    91.48000000
   H    101.61000000    35.87000000    93.08000000
   H    100.88000000    34.49000000    92.13000000
   H    100.93000000    36.10000000    90.88000000
   N    103.52000000    33.16000000    94.56000000
   C    103.82000000    32.13000000    95.53000000
   C    102.90000000    32.13000000    96.75000000
   O    103.24000000    32.40000000    97.90000000
   C    105.27000000    32.27000000    95.99000000
   H    104.20000000    33.91000000    94.59000000
   H    103.61000000    31.16000000    95.08000000
   H    105.58000000    33.24000000    96.38000000
   H    105.39000000    31.55000000    96.80000000
   H    105.93000000    32.05000000    95.15000000
   N    101.62000000    31.98000000    96.40000000
   C    100.45000000    32.13000000    97.24000000
   C    100.43000000    33.49000000    97.93000000
   O    100.29000000    33.51000000    99.15000000
   C    100.28000000    30.94000000    98.18000000
   H    101.36000000    31.90000000    95.43000000
   H     99.60000000    32.04000000    96.56000000
   H    101.10000000    30.80000000    98.89000000
   H     99.30000000    31.08000000    98.63000000
   H    100.27000000    29.99000000    97.65000000
   N    100.64000000    34.61000000    97.24000000
   C    100.81000000    35.94000000    97.80000000
   C     99.42000000    36.54000000    98.01000000
   O     99.33000000    37.41000000    98.86000000
   C    101.74000000    36.77000000    96.92000000
   C    103.22000000    36.49000000    97.15000000
   C    104.08000000    37.18000000    96.10000000
   O    104.77000000    38.16000000    96.44000000
   O    103.98000000    36.81000000    94.91000000
   H    100.68000000    34.52000000    96.23000000
   H    101.28000000    35.93000000    98.78000000
   H    101.54000000    37.82000000    97.13000000
   H    101.47000000    36.62000000    95.87000000
   H    103.46000000    35.43000000    97.15000000
   H    103.44000000    36.83000000    98.16000000
   N     98.37000000    36.22000000    97.24000000
   C     97.06000000    36.78000000    97.50000000
   H     96.34000000    35.97200000    97.63000000
   H     97.09600000    37.38400000    98.40700000
   H     96.75800000    37.40400000    96.65900000
   H     98.40000000    35.38000000    96.69000000
  Ca    102.39200000    41.75000000    98.82000000
   O    102.54200000    39.17000000    99.41000000
   H    103.05200000    38.48000000    99.00000000
   H    101.74200000    38.74000000    99.72000000
   O    100.55200000    40.77000000   101.02200000
   H    100.63200000    41.16000000   101.89200000
   H     99.70200000    40.32000000   101.04200000
   O    100.40200000    40.22000000    97.90000000
   H    100.10200000    39.39000000    98.27000000
   H     99.59200000    40.69000000    97.70000000
   O    101.65200000    44.12000000    99.75200000
   H    100.96200000    44.78000000    99.62200000
   H    102.21200000    44.48000000   100.43200000
   O    103.64200000    40.68000000    96.49000000
   H    103.99200000    41.02000000    95.67000000
   H    104.20200000    39.93000000    96.70000000
   O    101.21200000    43.11000000    96.90000000
   H    101.50200000    44.01000000    96.77000000
   H    100.99200000    42.80000000    96.02000000

Ca 1.00



