%chk=loop4.holoCaM.run20.water2.chk
%nprocshared=20
%mem=10GB
%nosave
#b3lyp/svp scf=(tight,noincore,xqc) Test 
#IOP(5/87=12) Density=Current Pop=(MK,readradii) iop(6/33=2) iop(6/42=6)

loop4.holoCaM.run20.water2 

   -3  1 
   C     77.52000000    26.29000000    14.47000000
   C     78.86000000    26.95000000    14.21000000
   O     78.92000000    27.92000000    13.45000000
   H     76.77300000    26.70600000    13.79300000
   H     77.60400000    25.21600000    14.30100000
   H     77.21800000    26.47400000    15.50100000
   N     79.98000000    26.50000000    14.80000000
   C     81.32000000    26.89000000    14.44000000
   C     81.66000000    26.51000000    13.00000000
   O     81.44000000    25.42000000    12.49000000
   C     82.25000000    26.13000000    15.38000000
   C     83.72000000    26.48000000    15.21000000
   O     84.50000000    25.59000000    14.80000000
   O     84.11000000    27.67000000    15.28000000
   H     79.88000000    25.84000000    15.56000000
   H     81.45000000    27.96000000    14.57000000
   H     82.14000000    25.05000000    15.27000000
   H     82.05000000    26.41000000    16.42000000
   N     82.28000000    27.44000000    12.27000000
   C     82.55000000    27.23000000    10.87000000
   C     84.04000000    27.17000000    10.57000000
   O     84.44000000    26.85000000     9.45000000
   C     81.89000000    28.34000000    10.07000000
   C     82.42000000    29.72000000    10.43000000
   C     80.36000000    28.38000000    10.15000000
   C     82.31000000    30.72000000     9.28000000
   H     82.46000000    28.34000000    12.71000000
   H     82.08000000    26.33000000    10.46000000
   H     82.11000000    28.16000000     9.02000000
   H     83.40000000    29.73000000    10.89000000
   H     81.85000000    30.18000000    11.24000000
   H     79.95000000    27.47000000     9.72000000
   H     79.98000000    28.49000000    11.17000000
   H     79.90000000    29.12000000     9.50000000
   H     82.78000000    30.33000000     8.38000000
   H     81.25000000    30.70000000     9.05000000
   H     82.62000000    31.74000000     9.54000000
   N     84.87000000    27.66000000    11.50000000
   C     86.25000000    28.03000000    11.28000000
   C     87.24000000    27.30000000    12.18000000
   O     88.41000000    27.61000000    12.35000000
   C     86.53000000    29.53000000    11.17000000
   C     86.30000000    30.38000000    12.42000000
   O     85.86000000    29.71000000    13.38000000
   O     86.55000000    31.60000000    12.44000000
   H     84.54000000    27.89000000    12.42000000
   H     86.47000000    27.70000000    10.26000000
   H     85.82000000    29.84000000    10.40000000
   H     87.54000000    29.63000000    10.78000000
   N     86.76000000    26.25000000    12.86000000
   C     87.60000000    25.23000000    13.44000000
   C     88.04000000    25.45000000    14.88000000
   O     89.21000000    25.21000000    15.19000000
   H     85.76000000    26.11000000    12.76000000
   H     88.52000000    25.18000000    12.85000000
   H     87.09000000    24.27000000    13.53000000
   N     87.23000000    26.08000000    15.73000000
   C     87.54000000    26.30000000    17.13000000
   C     86.43000000    25.92000000    18.11000000
   O     86.73000000    25.99000000    19.30000000
   C     87.94000000    27.75000000    17.36000000
   C     86.91000000    28.81000000    17.00000000
   O     87.26000000    29.69000000    16.20000000
   O     85.79000000    28.78000000    17.57000000
   H     86.33000000    26.42000000    15.42000000
   H     88.40000000    25.68000000    17.39000000
   H     88.81000000    27.98000000    16.75000000
   H     88.29000000    27.93000000    18.38000000
   N     85.27000000    25.40000000    17.71000000
   C     84.17000000    25.07000000    18.59000000
   C     83.56000000    26.22000000    19.37000000
   O     82.85000000    25.90000000    20.32000000
   H     85.12000000    25.47000000    16.71000000
   H     84.64000000    24.48000000    19.37000000
   H     83.41000000    24.49000000    18.05000000
   N     83.83000000    27.48000000    19.00000000
   C     83.25000000    28.61000000    19.70000000
   C     82.69000000    29.58000000    18.67000000
   O     83.05000000    29.55000000    17.50000000
   C     84.26000000    29.33000000    20.58000000
   C     84.54000000    28.52000000    21.85000000
   C     85.30000000    29.38000000    22.85000000
   N     85.98000000    28.79000000    23.83000000
   O     85.13000000    30.60000000    22.90000000
   H     84.24000000    27.61000000    18.09000000
   H     82.42000000    28.28000000    20.33000000
   H     83.92000000    30.31000000    20.92000000
   H     85.17000000    29.43000000    19.99000000
   H     85.21000000    27.71000000    21.56000000
   H     83.64000000    28.06000000    22.26000000
   H     85.97000000    27.78000000    23.81000000
   H     86.43000000    29.37000000    24.53000000
   N     81.86000000    30.55000000    19.06000000
   C     81.29000000    31.58000000    18.21000000
   C     81.62000000    33.03000000    18.52000000
   O     81.50000000    33.54000000    19.63000000
   C     79.80000000    31.40000000    17.93000000
   C     79.56000000    30.09000000    17.19000000
   C     78.93000000    31.34000000    19.19000000
   H     81.66000000    30.64000000    20.04000000
   H     81.72000000    31.40000000    17.22000000
   H     79.54000000    32.18000000    17.22000000
   H     78.49000000    30.10000000    16.99000000
   H     80.21000000    29.95000000    16.33000000
   H     79.70000000    29.22000000    17.84000000
   H     77.87000000    31.49000000    18.97000000
   H     78.96000000    30.40000000    19.74000000
   H     79.18000000    32.17000000    19.85000000
   N     81.95000000    33.69000000    17.41000000
   C     82.15000000    35.12000000    17.36000000
   C     80.86000000    35.71000000    16.82000000
   O     80.01000000    34.94000000    16.37000000
   C     83.38000000    35.50000000    16.53000000
   C     83.09000000    35.85000000    15.08000000
   N     83.31000000    34.87000000    14.19000000
   O     82.76000000    36.97000000    14.69000000
   H     82.17000000    33.09000000    16.63000000
   H     82.33000000    35.59000000    18.33000000
   H     84.20000000    34.79000000    16.57000000
   H     83.75000000    36.42000000    16.98000000
   H     83.59000000    33.96000000    14.51000000
   H     83.10000000    35.09000000    13.23000000
   N     80.59000000    37.02000000    16.86000000
   C     79.33000000    37.62000000    16.47000000
   C     78.74000000    37.17000000    15.14000000
   O     77.59000000    36.75000000    15.07000000
   C     79.52000000    39.13000000    16.51000000
   C     78.17000000    39.81000000    16.60000000
   C     77.44000000    39.78000000    17.79000000
   C     77.71000000    40.33000000    15.39000000
   C     76.13000000    40.28000000    17.82000000
   C     76.43000000    40.89000000    15.46000000
   C     75.66000000    40.88000000    16.64000000
   O     74.47000000    41.55000000    16.63000000
   H     81.30000000    37.65000000    17.21000000
   H     78.56000000    37.35000000    17.19000000
   H     80.13000000    39.42000000    15.66000000
   H     80.14000000    39.37000000    17.38000000
   H     77.81000000    39.29000000    18.68000000
   H     78.33000000    40.52000000    14.52000000
   H     75.49000000    40.16000000    18.68000000
   H     75.98000000    41.27000000    14.56000000
   H     74.25000000    41.88000000    15.75000000
   N     79.58000000    37.14000000    14.10000000
   C     79.03000000    36.87000000    12.78000000
   C     78.86000000    35.37000000    12.58000000
   O     78.27000000    35.02000000    11.56000000
   C     79.95000000    37.44000000    11.70000000
   C     79.26000000    38.69000000    11.17000000
   C     79.88000000    39.23000000     9.88000000
   O     79.52000000    38.70000000     8.81000000
   O     80.79000000    40.07000000    10.03000000
   H     80.56000000    37.35000000    14.25000000
   H     78.05000000    37.31000000    12.66000000
   H     80.14000000    36.75000000    10.87000000
   H     80.95000000    37.77000000    11.98000000
   H     79.20000000    39.50000000    11.90000000
   H     78.23000000    38.52000000    10.86000000
   N     79.28000000    34.50000000    13.50000000
   C     78.87000000    33.12000000    13.59000000
   C     77.57000000    33.06000000    14.38000000
   O     76.62000000    32.36000000    14.06000000
   C     79.98000000    32.29000000    14.23000000
   C     81.22000000    32.10000000    13.37000000
   C     82.35000000    31.40000000    14.11000000
   O     82.84000000    32.07000000    15.04000000
   O     82.71000000    30.22000000    13.88000000
   H     79.70000000    34.95000000    14.31000000
   H     78.63000000    32.76000000    12.59000000
   H     79.66000000    31.27000000    14.45000000
   H     80.21000000    32.68000000    15.22000000
   H     81.61000000    33.09000000    13.13000000
   H     80.93000000    31.58000000    12.45000000
   N     77.44000000    33.91000000    15.41000000
   C     76.38000000    33.97000000    16.40000000
   H     75.47500000    33.52300000    15.99000000
   H     76.68400000    33.42200000    17.29200000
   H     76.18400000    35.01000000    16.66100000
   H     78.34000000    34.31000000    15.63000000
  Ca     84.71000000    30.17000000    15.53000000
   O     85.37000000    31.38000000    17.82000000
   H     85.85000000    31.88000000    18.47000000
   H     85.37000000    30.48000000    18.16000000
   O     85.79000000    32.68000000    14.84000000
   H     86.15000000    32.59000000    13.96000000
   H     86.19000000    33.47000000    15.20000000

Ca 1.00



