%chk=loop1.apoCaM-CA-Ng.Init295.run27.water5.chk
%nprocshared=20
%mem=10GB
%nosave
#b3lyp/svp scf=(tight,noincore,xqc) Test 
#IOP(5/87=12) Density=Current Pop=(MK,readradii) iop(6/33=2) iop(6/42=6)

loop1.apoCaM-CA-Ng.Init295.run27.water5 

   0  1 
   C     94.76000000    71.93000000    51.01000000
   C     94.30000000    72.35000000    49.62000000
   O     93.32000000    73.04000000    49.37000000
   H     95.62800000    72.52200000    51.29900000
   H     93.95400000    72.09500000    51.72500000
   H     95.02800000    70.87400000    51.00100000
   N     95.11000000    71.97000000    48.63000000
   C     94.92000000    72.15000000    47.20000000
   C     94.64000000    73.60000000    46.84000000
   O     93.71000000    73.91000000    46.10000000
   C     94.01000000    71.05000000    46.69000000
   C     93.98000000    70.94000000    45.17000000
   O     92.97000000    70.39000000    44.68000000
   O     94.99000000    71.30000000    44.53000000
   H     95.95000000    71.45000000    48.84000000
   H     95.89000000    71.93000000    46.75000000
   H     92.99000000    71.26000000    47.01000000
   H     94.36000000    70.09000000    47.06000000
   N     95.45000000    74.52000000    47.36000000
   C     95.38000000    75.96000000    47.16000000
   C     96.52000000    76.44000000    46.27000000
   O     96.36000000    77.35000000    45.46000000
   C     95.40000000    76.49000000    48.59000000
   C     94.03000000    76.59000000    49.25000000
   C     94.07000000    76.77000000    50.76000000
   C     94.75000000    78.11000000    51.02000000
   N     94.87000000    78.45000000    52.45000000
   H     96.20000000    74.20000000    47.96000000
   H     94.47000000    76.23000000    46.64000000
   H     95.72000000    77.53000000    48.56000000
   H     96.16000000    76.00000000    49.21000000
   H     93.61000000    75.60000000    49.06000000
   H     93.45000000    77.40000000    48.80000000
   H     94.67000000    75.99000000    51.23000000
   H     93.05000000    76.72000000    51.13000000
   H     94.11000000    78.78000000    50.43000000
   H     95.78000000    78.12000000    50.66000000
   H     93.98000000    78.60000000    52.90000000
   H     95.33000000    77.79000000    53.06000000
   H     95.39000000    79.31000000    52.58000000
   N     97.71000000    75.87000000    46.44000000
   C     98.84000000    76.08000000    45.56000000
   C     99.55000000    74.78000000    45.21000000
   O     99.87000000    74.59000000    44.03000000
   C     99.68000000    77.17000000    46.22000000
   C    100.96000000    77.51000000    45.46000000
   O    101.28000000    77.17000000    44.31000000
   O    101.69000000    78.32000000    46.07000000
   H     97.76000000    75.16000000    47.16000000
   H     98.55000000    76.46000000    44.58000000
   H    100.00000000    76.84000000    47.21000000
   H     99.09000000    78.09000000    46.28000000
   N     99.52000000    73.77000000    46.08000000
   C     99.82000000    72.37000000    45.89000000
   C    101.26000000    71.96000000    45.62000000
   O    101.60000000    70.80000000    45.85000000
   H     99.27000000    73.92000000    47.05000000
   H     99.21000000    71.85000000    45.15000000
   H     99.46000000    72.00000000    46.85000000
   N    102.08000000    72.90000000    45.14000000
   C    103.50000000    72.71000000    44.99000000
   C    104.31000000    72.95000000    46.26000000
   O    105.51000000    73.20000000    46.13000000
   C    104.01000000    73.66000000    43.91000000
   C    103.89000000    75.14000000    44.24000000
   O    103.52000000    75.72000000    45.28000000
   O    104.19000000    75.91000000    43.30000000
   H    101.69000000    73.76000000    44.78000000
   H    103.65000000    71.65000000    44.78000000
   H    103.47000000    73.50000000    42.98000000
   H    105.07000000    73.42000000    43.78000000
   N    103.69000000    72.95000000    47.44000000
   C    104.36000000    73.00000000    48.72000000
   C    104.85000000    71.60000000    49.06000000
   O    104.50000000    70.56000000    48.51000000
   H    102.68000000    72.98000000    47.50000000
   H    103.60000000    73.35000000    49.43000000
   H    105.24000000    73.63000000    48.75000000
   N    105.66000000    71.40000000    50.10000000
   C    105.95000000    70.09000000    50.66000000
   C    107.08000000    69.42000000    49.89000000
   O    108.08000000    70.06000000    49.60000000
   C    106.23000000    69.98000000    52.15000000
   C    107.23000000    71.00000000    52.69000000
   O    105.00000000    70.10000000    52.82000000
   H    106.00000000    72.19000000    50.62000000
   H    105.10000000    69.44000000    50.47000000
   H    106.69000000    69.03000000    52.40000000
   H    105.12000000    69.93000000    53.76000000
   H    107.10000000    72.04000000    52.42000000
   H    107.09000000    70.89000000    53.77000000
   H    108.25000000    70.70000000    52.43000000
   N    106.87000000    68.22000000    49.34000000
   C    107.72000000    67.56000000    48.36000000
   C    106.96000000    67.07000000    47.14000000
   O    107.65000000    66.57000000    46.26000000
   C    108.70000000    66.54000000    48.93000000
   C    108.02000000    65.22000000    49.25000000
   C    109.50000000    67.01000000    50.14000000
   C    108.96000000    64.02000000    49.19000000
   H    106.00000000    67.76000000    49.57000000
   H    108.49000000    68.25000000    48.01000000
   H    109.47000000    66.19000000    48.23000000
   H    107.19000000    65.04000000    48.57000000
   H    107.48000000    65.36000000    50.19000000
   H    110.16000000    66.19000000    50.43000000
   H    110.12000000    67.84000000    49.82000000
   H    108.87000000    67.30000000    50.99000000
   H    109.35000000    63.97000000    48.18000000
   H    109.73000000    64.12000000    49.96000000
   H    108.43000000    63.09000000    49.42000000
   N    105.63000000    67.20000000    47.11000000
   C    104.85000000    66.86000000    45.93000000
   C    103.55000000    66.23000000    46.40000000
   O    103.13000000    66.53000000    47.52000000
   C    104.55000000    68.09000000    45.08000000
   C    105.80000000    68.81000000    44.56000000
   O    103.97000000    67.63000000    43.88000000
   H    105.08000000    67.49000000    47.90000000
   H    105.37000000    66.16000000    45.29000000
   H    103.85000000    68.80000000    45.53000000
   H    103.46000000    68.39000000    43.57000000
   H    106.44000000    68.13000000    43.99000000
   H    105.47000000    69.59000000    43.88000000
   H    106.38000000    69.26000000    45.36000000
   N    102.81000000    65.54000000    45.53000000
   C    101.50000000    64.97000000    45.76000000
   C    101.47000000    63.56000000    46.35000000
   O    100.41000000    63.02000000    46.64000000
   C    100.54000000    65.19000000    44.59000000
   C     99.05000000    64.91000000    44.60000000
   O    101.11000000    64.53000000    43.47000000
   H    103.34000000    65.17000000    44.75000000
   H    101.06000000    65.49000000    46.60000000
   H    100.59000000    66.25000000    44.33000000
   H    102.05000000    64.43000000    43.58000000
   H     98.69000000    65.51000000    45.44000000
   H     98.56000000    65.24000000    43.69000000
   H     98.91000000    63.83000000    44.73000000
   N    102.66000000    63.11000000    46.75000000
   C    102.94000000    61.97000000    47.60000000
   C    104.05000000    62.25000000    48.60000000
   O    104.93000000    63.09000000    48.40000000
   C    103.35000000    60.81000000    46.69000000
   C    102.41000000    60.46000000    45.55000000
   C    102.59000000    59.01000000    45.09000000
   C    104.00000000    58.42000000    45.15000000
   N    103.89000000    57.06000000    44.61000000
   H    103.37000000    63.82000000    46.71000000
   H    102.06000000    61.56000000    48.10000000
   H    103.36000000    59.89000000    47.28000000
   H    104.32000000    61.09000000    46.27000000
   H    102.54000000    61.13000000    44.70000000
   H    101.37000000    60.67000000    45.82000000
   H    102.13000000    58.90000000    44.11000000
   H    101.94000000    58.40000000    45.72000000
   H    104.38000000    58.38000000    46.17000000
   H    104.71000000    58.98000000    44.55000000
   H    103.22000000    56.46000000    45.07000000
   H    103.69000000    57.12000000    43.62000000
   H    104.75000000    56.57000000    44.84000000
   N    104.08000000    61.60000000    49.76000000
   C    105.18000000    61.64000000    50.69000000
   C    104.67000000    61.66000000    52.13000000
   O    104.94000000    60.79000000    52.95000000
   C    106.12000000    60.44000000    50.54000000
   C    106.83000000    60.32000000    49.19000000
   C    107.91000000    59.24000000    49.18000000
   O    108.88000000    59.42000000    49.94000000
   O    107.73000000    58.16000000    48.57000000
   H    103.41000000    60.86000000    49.93000000
   H    105.79000000    62.53000000    50.56000000
   H    105.47000000    59.57000000    50.62000000
   H    106.86000000    60.41000000    51.34000000
   H    107.29000000    61.29000000    48.97000000
   H    106.14000000    60.11000000    48.38000000
   N    103.82000000    62.62000000    52.51000000
   C    103.31000000    63.78000000    51.82000000
   H    102.39000000    64.11300000    52.30100000
   H    104.04900000    64.58000000    51.85800000
   H    103.10400000    63.52400000    50.78100000
   H    103.55000000    62.51000000    53.48000000
  Ca    103.61500000    78.19000000    44.27000000
   O    101.74500000    80.34000000    44.26000000
   H    101.09500000    80.37000000    44.96000000
   H    101.24500000    80.51000000    43.46000000
   O    106.35500000    77.71000000    44.38000000
   H    106.40500000    76.82000000    44.71000000
   H    107.07500000    78.17000000    44.82000000
   O    104.67500000    80.52000000    43.76000000
   H    104.58500000    81.20000000    43.09000000
   H    105.43500000    80.80000000    44.28000000
   O    102.70500000    78.77000000    41.78000000
   H    101.87500000    79.25000000    41.71000000
   H    102.75500000    78.26000000    40.97000000
   O    104.88500000    78.89000000    46.56000000
   H    105.15500000    78.33000000    47.29000000
   H    105.29500000    79.73000000    46.73000000

Ca 1.00



