%chk=loop4.holoCaM-CaMKII.run30.water2.chk
%nprocshared=20
%mem=10GB
%nosave
#b3lyp/svp scf=(tight,noincore,xqc) Test 
#IOP(5/87=12) Density=Current Pop=(MK,readradii) iop(6/33=2) iop(6/42=6)

loop4.holoCaM-CaMKII.run30.water2 

   -3  1 
   C     95.41000000    44.44000000    43.74000000
   C     95.40000000    44.14000000    45.23000000
   O     94.85000000    44.95000000    45.98000000
   H     96.03900000    45.31000000    43.54900000
   H     95.80600000    43.58100000    43.19800000
   H     94.39400000    44.64600000    43.40300000
   N     96.10000000    43.11000000    45.71000000
   C     96.17000000    42.86000000    47.14000000
   C     97.13000000    43.74000000    47.93000000
   O     98.32000000    43.65000000    47.66000000
   C     96.44000000    41.37000000    47.33000000
   C     96.43000000    40.83000000    48.75000000
   O     96.05000000    41.61000000    49.65000000
   O     96.70000000    39.64000000    49.01000000
   H     96.74000000    42.64000000    45.09000000
   H     95.18000000    43.07000000    47.54000000
   H     97.44000000    41.19000000    46.94000000
   H     95.79000000    40.80000000    46.66000000
   N     96.58000000    44.64000000    48.76000000
   C     97.21000000    45.71000000    49.50000000
   C     97.80000000    45.20000000    50.80000000
   O     98.86000000    45.69000000    51.19000000
   C     96.10000000    46.76000000    49.63000000
   C     95.60000000    47.25000000    48.27000000
   C     96.55000000    47.96000000    50.45000000
   C     96.65000000    47.64000000    47.23000000
   H     95.59000000    44.53000000    48.92000000
   H     97.99000000    46.13000000    48.87000000
   H     95.25000000    46.30000000    50.11000000
   H     94.86000000    48.03000000    48.43000000
   H     94.91000000    46.47000000    47.96000000
   H     95.82000000    48.77000000    50.35000000
   H     96.84000000    47.79000000    51.49000000
   H     97.43000000    48.47000000    50.05000000
   H     97.34000000    46.83000000    46.99000000
   H     96.21000000    47.91000000    46.27000000
   H     97.28000000    48.44000000    47.63000000
   N     97.33000000    44.12000000    51.42000000
   C     97.89000000    43.57000000    52.65000000
   C     98.68000000    42.28000000    52.54000000
   O     99.35000000    41.81000000    53.46000000
   C     96.92000000    43.42000000    53.82000000
   C     95.60000000    42.71000000    53.54000000
   O     95.14000000    42.71000000    52.38000000
   O     94.98000000    42.17000000    54.48000000
   H     96.54000000    43.68000000    50.98000000
   H     98.66000000    44.19000000    53.10000000
   H     96.72000000    44.43000000    54.19000000
   H     97.25000000    42.85000000    54.69000000
   N     98.59000000    41.59000000    51.40000000
   C     99.49000000    40.48000000    51.18000000
   C     99.00000000    39.17000000    51.78000000
   O     99.73000000    38.30000000    52.26000000
   H     97.94000000    41.82000000    50.66000000
   H    100.45000000    40.74000000    51.61000000
   H     99.60000000    40.32000000    50.10000000
   N     97.67000000    39.03000000    51.80000000
   C     96.98000000    37.88000000    52.34000000
   C     96.53000000    36.80000000    51.36000000
   O     95.96000000    35.78000000    51.75000000
   C     95.98000000    38.28000000    53.42000000
   C     94.66000000    38.67000000    52.75000000
   O     94.66000000    39.28000000    51.67000000
   O     93.60000000    38.31000000    53.31000000
   H     97.15000000    39.82000000    51.44000000
   H     97.70000000    37.37000000    52.99000000
   H     96.33000000    39.17000000    53.94000000
   H     95.81000000    37.46000000    54.11000000
   N     96.76000000    36.94000000    50.05000000
   C     96.15000000    36.23000000    48.95000000
   C     94.66000000    36.47000000    48.82000000
   O     93.92000000    35.57000000    48.43000000
   H     97.14000000    37.85000000    49.82000000
   H     96.34000000    35.15000000    49.01000000
   H     96.63000000    36.62000000    48.05000000
   N     94.11000000    37.62000000    49.24000000
   C     92.73000000    37.89000000    48.90000000
   C     92.52000000    39.26000000    48.27000000
   O     93.22000000    40.21000000    48.60000000
   C     91.86000000    37.79000000    50.15000000
   C     91.90000000    36.40000000    50.78000000
   C     91.11000000    36.15000000    52.05000000
   N     91.37000000    36.76000000    53.20000000
   O     90.08000000    35.47000000    52.08000000
   H     94.72000000    38.37000000    49.53000000
   H     92.33000000    37.28000000    48.09000000
   H     90.85000000    38.08000000    49.88000000
   H     92.23000000    38.44000000    50.95000000
   H     92.95000000    36.16000000    50.97000000
   H     91.63000000    35.65000000    50.03000000
   H     92.27000000    37.21000000    53.34000000
   H     90.68000000    36.73000000    53.94000000
   N     91.44000000    39.51000000    47.52000000
   C     91.16000000    40.80000000    46.93000000
   C     89.72000000    41.11000000    47.33000000
   O     88.82000000    40.44000000    46.83000000
   C     91.40000000    40.89000000    45.43000000
   C     90.97000000    42.20000000    44.77000000
   C     92.88000000    40.67000000    45.16000000
   H     90.81000000    38.74000000    47.30000000
   H     91.76000000    41.60000000    47.38000000
   H     90.88000000    40.10000000    44.90000000
   H     91.58000000    42.96000000    45.26000000
   H     91.14000000    42.13000000    43.69000000
   H     89.90000000    42.31000000    44.97000000
   H     93.50000000    41.35000000    45.73000000
   H     93.31000000    39.69000000    45.40000000
   H     93.18000000    40.84000000    44.12000000
   N     89.48000000    42.11000000    48.18000000
   C     88.21000000    42.69000000    48.58000000
   C     87.59000000    43.68000000    47.61000000
   O     88.32000000    44.19000000    46.76000000
   C     88.36000000    43.39000000    49.93000000
   C     87.00000000    43.72000000    50.52000000
   N     86.15000000    42.73000000    50.82000000
   O     86.64000000    44.88000000    50.69000000
   H     90.29000000    42.57000000    48.58000000
   H     87.56000000    41.84000000    48.78000000
   H     88.97000000    44.28000000    49.81000000
   H     88.92000000    42.73000000    50.60000000
   H     86.30000000    41.78000000    50.50000000
   H     85.30000000    43.01000000    51.28000000
   N     86.28000000    43.96000000    47.66000000
   C     85.66000000    45.06000000    46.95000000
   C     86.50000000    46.32000000    47.09000000
   O     86.77000000    46.93000000    46.06000000
   C     84.26000000    45.42000000    47.45000000
   C     83.51000000    46.35000000    46.51000000
   C     83.05000000    45.89000000    45.27000000
   C     83.16000000    47.65000000    46.89000000
   C     82.32000000    46.71000000    44.41000000
   C     82.55000000    48.51000000    45.97000000
   C     82.08000000    48.07000000    44.72000000
   O     81.47000000    48.92000000    43.84000000
   H     85.71000000    43.57000000    48.39000000
   H     85.59000000    44.80000000    45.90000000
   H     84.19000000    45.79000000    48.47000000
   H     83.55000000    44.60000000    47.49000000
   H     83.25000000    44.86000000    45.02000000
   H     83.43000000    47.99000000    47.88000000
   H     82.14000000    46.33000000    43.41000000
   H     82.28000000    49.51000000    46.29000000
   H     81.49000000    49.84000000    44.11000000
   N     86.86000000    46.77000000    48.30000000
   C     87.62000000    47.98000000    48.53000000
   C     89.00000000    47.99000000    47.89000000
   O     89.52000000    49.07000000    47.64000000
   C     87.77000000    48.09000000    50.04000000
   C     86.45000000    48.39000000    50.73000000
   C     85.68000000    49.56000000    50.12000000
   O     86.29000000    50.56000000    49.69000000
   O     84.43000000    49.51000000    50.10000000
   H     86.55000000    46.32000000    49.14000000
   H     87.02000000    48.80000000    48.12000000
   H     88.43000000    48.92000000    50.30000000
   H     88.16000000    47.13000000    50.39000000
   H     86.66000000    48.62000000    51.78000000
   H     85.84000000    47.49000000    50.66000000
   N     89.61000000    46.84000000    47.61000000
   C     90.86000000    46.63000000    46.90000000
   C     90.70000000    46.59000000    45.39000000
   O     91.50000000    47.16000000    44.65000000
   C     91.42000000    45.29000000    47.38000000
   C     91.87000000    45.25000000    48.84000000
   C     92.65000000    44.04000000    49.32000000
   O     93.87000000    44.09000000    49.58000000
   O     92.09000000    42.92000000    49.31000000
   H     89.25000000    45.96000000    47.96000000
   H     91.54000000    47.44000000    47.15000000
   H     92.28000000    45.12000000    46.73000000
   H     90.68000000    44.51000000    47.21000000
   H     90.97000000    45.34000000    49.44000000
   H     92.50000000    46.10000000    49.10000000
   N     89.63000000    45.96000000    44.90000000
   C     89.27000000    45.86000000    43.50000000
   H     88.43600000    46.53000000    43.29100000
   H     90.12400000    46.14100000    42.88400000
   H     88.97800000    44.83500000    43.27200000
   H     89.02000000    45.52000000    45.59000000
  Ca     93.57000000    41.48000000    50.77000000
   O     92.38000000    43.48000000    52.41000000
   H     91.51000000    43.84000000    52.60000000
   H     92.99000000    44.15000000    52.73000000
   O     91.98000000    40.38000000    52.63000000
   H     91.27000000    40.61000000    53.23000000
   H     92.36000000    39.58000000    53.00000000

Ca 1.00



