%chk=loop2.holoCaM.run79.water1.chk
%nprocshared=20
%mem=10GB
%nosave
#b3lyp/svp scf=(tight,noincore,xqc) Test 
#IOP(5/87=12) Density=Current Pop=(MK,readradii) iop(6/33=2) iop(6/42=6)

loop2.holoCaM.run79.water1 

   -2  1 
   C     38.82000000    54.98000000    36.94000000
   C     38.16000000    53.97000000    37.87000000
   O     38.08000000    54.19000000    39.07000000
   H     39.81800000    54.63100000    36.67500000
   H     38.22100000    55.08700000    36.03500000
   H     38.89400000    55.94400000    37.44300000
   N     37.81000000    52.76000000    37.44000000
   C     37.24000000    51.72000000    38.28000000
   C     38.25000000    51.02000000    39.18000000
   O     39.32000000    50.63000000    38.72000000
   C     36.55000000    50.68000000    37.41000000
   C     35.79000000    49.58000000    38.13000000
   O     35.21000000    48.80000000    37.34000000
   O     35.80000000    49.60000000    39.38000000
   H     37.97000000    52.55000000    36.47000000
   H     36.44000000    52.18000000    38.86000000
   H     37.30000000    50.20000000    36.79000000
   H     35.80000000    51.21000000    36.82000000
   N     38.02000000    51.03000000    40.49000000
   C     38.89000000    50.54000000    41.54000000
   C     38.68000000    49.09000000    41.96000000
   O     39.44000000    48.60000000    42.79000000
   C     38.92000000    51.56000000    42.68000000
   H     37.09000000    51.26000000    40.82000000
   H     39.90000000    50.58000000    41.13000000
   H     37.93000000    51.89000000    42.99000000
   H     39.46000000    51.16000000    43.53000000
   H     39.46000000    52.44000000    42.33000000
   N     37.65000000    48.36000000    41.53000000
   C     37.50000000    46.93000000    41.72000000
   C     37.28000000    46.12000000    40.44000000
   O     36.94000000    44.94000000    40.43000000
   C     36.34000000    46.67000000    42.68000000
   C     35.17000000    47.59000000    42.33000000
   O     34.65000000    47.42000000    41.20000000
   O     34.82000000    48.56000000    43.03000000
   H     36.89000000    48.79000000    41.04000000
   H     38.40000000    46.48000000    42.12000000
   H     36.56000000    46.90000000    43.72000000
   H     35.88000000    45.69000000    42.56000000
   N     37.50000000    46.74000000    39.28000000
   C     37.25000000    46.24000000    37.94000000
   C     35.83000000    45.79000000    37.65000000
   O     35.62000000    45.26000000    36.56000000
   H     37.90000000    47.67000000    39.32000000
   H     37.90000000    45.36000000    37.93000000
   H     37.48000000    47.06000000    37.27000000
   N     34.78000000    46.06000000    38.44000000
   C     33.52000000    45.35000000    38.31000000
   C     32.62000000    45.86000000    37.20000000
   O     31.62000000    45.26000000    36.80000000
   C     32.79000000    45.26000000    39.65000000
   C     32.22000000    46.60000000    40.09000000
   N     31.42000000    46.57000000    41.15000000
   O     32.52000000    47.70000000    39.64000000
   H     34.83000000    46.68000000    39.23000000
   H     33.75000000    44.32000000    38.02000000
   H     33.46000000    44.84000000    40.40000000
   H     31.90000000    44.65000000    39.53000000
   H     31.16000000    45.67000000    41.54000000
   H     31.46000000    47.31000000    41.84000000
   N     32.99000000    47.02000000    36.64000000
   C     32.40000000    47.63000000    35.46000000
   C     31.43000000    48.76000000    35.76000000
   O     30.77000000    49.37000000    34.92000000
   H     33.77000000    47.44000000    37.11000000
   H     31.87000000    47.00000000    34.76000000
   H     33.33000000    47.90000000    34.96000000
   N     31.24000000    49.15000000    37.02000000
   C     30.35000000    50.18000000    37.50000000
   C     31.03000000    51.16000000    38.45000000
   O     32.09000000    50.77000000    38.95000000
   C     29.23000000    49.57000000    38.34000000
   C     28.24000000    48.90000000    37.40000000
   O     29.62000000    48.46000000    39.12000000
   H     31.79000000    48.71000000    37.74000000
   H     29.89000000    50.87000000    36.79000000
   H     28.66000000    50.27000000    38.95000000
   H     29.91000000    48.79000000    39.97000000
   H     28.76000000    48.19000000    36.75000000
   H     27.54000000    48.32000000    38.00000000
   H     27.78000000    49.70000000    36.81000000
   N     30.52000000    52.39000000    38.49000000
   C     31.14000000    53.57000000    39.05000000
   C     30.56000000    53.88000000    40.43000000
   O     29.40000000    54.25000000    40.55000000
   C     31.11000000    54.71000000    38.04000000
   C     31.94000000    54.46000000    36.78000000
   C     31.57000000    56.04000000    38.64000000
   C     33.43000000    54.32000000    37.07000000
   H     29.59000000    52.41000000    38.08000000
   H     32.17000000    53.31000000    39.30000000
   H     30.09000000    54.78000000    37.68000000
   H     31.80000000    55.30000000    36.11000000
   H     31.52000000    53.62000000    36.22000000
   H     31.54000000    56.79000000    37.85000000
   H     30.89000000    56.41000000    39.40000000
   H     32.48000000    55.83000000    39.19000000
   H     33.63000000    53.38000000    37.59000000
   H     33.84000000    54.22000000    36.06000000
   H     33.80000000    55.24000000    37.51000000
   N     31.44000000    53.73000000    41.42000000
   C     31.31000000    54.13000000    42.81000000
   C     31.79000000    55.54000000    43.10000000
   O     32.59000000    56.06000000    42.31000000
   C     32.14000000    53.19000000    43.69000000
   C     31.78000000    51.72000000    43.53000000
   O     32.46000000    50.98000000    42.79000000
   O     30.76000000    51.25000000    44.07000000
   H     32.39000000    53.45000000    41.21000000
   H     30.26000000    54.15000000    43.10000000
   H     31.84000000    53.47000000    44.70000000
   H     33.20000000    53.41000000    43.57000000
   N     31.32000000    56.20000000    44.16000000
   C     31.70000000    57.57000000    44.45000000
   C     33.20000000    57.76000000    44.45000000
   O     33.69000000    58.71000000    43.83000000
   C     30.93000000    58.09000000    45.66000000
   C     31.28000000    59.54000000    45.88000000
   C     30.81000000    60.54000000    45.02000000
   C     32.01000000    59.98000000    46.99000000
   C     30.97000000    61.91000000    45.28000000
   C     32.36000000    61.33000000    47.15000000
   C     31.87000000    62.30000000    46.27000000
   H     30.68000000    55.68000000    44.74000000
   H     31.34000000    58.17000000    43.62000000
   H     31.16000000    57.39000000    46.46000000
   H     29.87000000    57.95000000    45.41000000
   H     30.33000000    60.24000000    44.10000000
   H     32.42000000    59.24000000    47.66000000
   H     30.59000000    62.64000000    44.57000000
   H     32.95000000    61.49000000    48.03000000
   H     32.09000000    63.35000000    46.45000000
   N     34.07000000    56.96000000    45.07000000
   C     35.50000000    57.15000000    44.94000000
   C     36.12000000    56.99000000    43.56000000
   O     37.34000000    56.92000000    43.47000000
   C     36.09000000    56.28000000    46.05000000
   C     34.91000000    55.81000000    46.88000000
   C     33.68000000    55.90000000    45.98000000
   H     35.72000000    58.20000000    45.12000000
   H     36.44000000    55.40000000    45.51000000
   H     36.96000000    56.73000000    46.54000000
   H     35.03000000    54.83000000    47.35000000
   H     34.86000000    56.51000000    47.71000000
   H     33.55000000    54.97000000    45.43000000
   H     32.84000000    56.23000000    46.59000000
   N     35.33000000    56.62000000    42.55000000
   C     35.72000000    56.45000000    41.16000000
   C     35.14000000    57.59000000    40.34000000
   O     35.80000000    58.24000000    39.54000000
   C     35.33000000    55.03000000    40.73000000
   C     35.86000000    53.87000000    41.56000000
   C     35.03000000    52.61000000    41.33000000
   O     33.94000000    52.54000000    40.73000000
   O     35.54000000    51.55000000    41.74000000
   H     34.34000000    56.57000000    42.74000000
   H     36.79000000    56.54000000    41.01000000
   H     35.64000000    54.90000000    39.69000000
   H     34.25000000    54.94000000    40.67000000
   H     35.97000000    54.16000000    42.60000000
   H     36.89000000    53.60000000    41.30000000
   N     33.90000000    57.93000000    40.70000000
   C     33.22000000    59.10000000    40.18000000
   H     32.28800000    59.25000000    40.72500000
   H     33.85700000    59.97600000    40.30300000
   H     33.00200000    58.95400000    39.12200000
   H     33.52000000    57.39000000    41.46000000
  Ca     33.66000000    49.84000000    40.83000000
   O     30.45000000    49.80000000    41.31000000
   H     31.01000000    50.28000000    41.92000000
   H     29.73000000    49.49000000    41.86000000

Ca 1.00



