%chk=loop4.apoCaM-CA-Ng.Init293.run99.water3.chk
%nprocshared=20
%mem=10GB
%nosave
#b3lyp/svp scf=(tight,noincore,xqc) Test 
#IOP(5/87=12) Density=Current Pop=(MK,readradii) iop(6/33=2) iop(6/42=6)

loop4.apoCaM-CA-Ng.Init293.run99.water3 

   -3  1 
   C    100.64000000    78.37000000    33.84000000
   C    101.72000000    77.32000000    34.07000000
   O    101.63000000    76.15000000    33.73000000
   H     99.76300000    78.12600000    34.44000000
   H    101.01700000    79.35000000    34.13100000
   H    100.36500000    78.38500000    32.78500000
   N    102.80000000    77.76000000    34.73000000
   C    104.07000000    77.22000000    35.17000000
   C    104.87000000    76.44000000    34.14000000
   O    105.91000000    75.88000000    34.49000000
   C    103.96000000    76.46000000    36.49000000
   C    102.88000000    75.38000000    36.50000000
   O    102.12000000    75.30000000    37.48000000
   O    102.83000000    74.59000000    35.53000000
   H    102.72000000    78.73000000    34.99000000
   H    104.70000000    78.09000000    35.36000000
   H    103.73000000    77.26000000    37.18000000
   H    104.93000000    75.99000000    36.68000000
   N    104.39000000    76.33000000    32.90000000
   C    104.99000000    75.58000000    31.81000000
   C    104.63000000    74.12000000    32.00000000
   O    103.53000000    73.80000000    32.46000000
   C    104.56000000    76.04000000    30.42000000
   C    105.32000000    77.28000000    29.95000000
   C    103.06000000    76.16000000    30.17000000
   C    105.27000000    77.54000000    28.45000000
   H    103.48000000    76.75000000    32.79000000
   H    106.08000000    75.64000000    31.78000000
   H    104.85000000    75.28000000    29.70000000
   H    106.35000000    77.27000000    30.29000000
   H    104.91000000    78.17000000    30.44000000
   H    102.51000000    75.32000000    30.59000000
   H    102.65000000    77.02000000    30.70000000
   H    102.84000000    76.26000000    29.11000000
   H    105.78000000    78.49000000    28.24000000
   H    105.76000000    76.71000000    27.95000000
   H    104.28000000    77.79000000    28.05000000
   N    105.57000000    73.26000000    31.59000000
   C    105.56000000    71.81000000    31.66000000
   C    105.56000000    71.39000000    33.13000000
   O    106.16000000    72.13000000    33.90000000
   C    106.70000000    71.10000000    30.95000000
   C    107.99000000    71.90000000    31.00000000
   O    108.04000000    73.05000000    30.53000000
   O    109.00000000    71.28000000    31.40000000
   H    106.43000000    73.66000000    31.26000000
   H    104.66000000    71.52000000    31.12000000
   H    106.43000000    70.84000000    29.92000000
   H    106.87000000    70.12000000    31.41000000
   N    105.08000000    70.19000000    33.45000000
   C    104.12000000    69.45000000    32.65000000
   C    102.74000000    70.09000000    32.69000000
   O    102.42000000    71.05000000    33.38000000
   H    105.01000000    70.00000000    34.44000000
   H    104.04000000    68.45000000    33.09000000
   H    104.44000000    69.36000000    31.61000000
   N    101.79000000    69.63000000    31.87000000
   C    101.84000000    68.49000000    30.97000000
   C    101.35000000    68.76000000    29.56000000
   O    100.14000000    68.75000000    29.34000000
   C    101.08000000    67.38000000    31.68000000
   C    101.06000000    66.09000000    30.88000000
   O    101.89000000    65.88000000    29.97000000
   O    100.32000000    65.12000000    31.18000000
   H    100.91000000    70.09000000    32.05000000
   H    102.84000000    68.06000000    30.99000000
   H    100.05000000    67.64000000    31.96000000
   H    101.58000000    67.21000000    32.63000000
   N    102.22000000    69.12000000    28.60000000
   C    103.65000000    69.21000000    28.80000000
   C    104.47000000    69.66000000    27.61000000
   O    105.69000000    69.50000000    27.59000000
   H    101.79000000    69.47000000    27.76000000
   H    104.16000000    68.28000000    29.07000000
   H    103.86000000    69.95000000    29.58000000
   N    103.86000000    70.14000000    26.52000000
   C    104.50000000    70.31000000    25.23000000
   C    104.00000000    71.66000000    24.73000000
   O    103.67000000    71.79000000    23.55000000
   C    104.16000000    69.18000000    24.26000000
   C    104.60000000    67.79000000    24.72000000
   C    104.48000000    66.74000000    23.63000000
   N    105.53000000    66.53000000    22.83000000
   O    103.42000000    66.16000000    23.41000000
   H    102.92000000    70.46000000    26.69000000
   H    105.56000000    70.47000000    25.41000000
   H    104.66000000    69.38000000    23.32000000
   H    103.10000000    69.13000000    24.03000000
   H    104.00000000    67.38000000    25.53000000
   H    105.63000000    67.97000000    25.04000000
   H    106.42000000    67.00000000    22.92000000
   H    105.48000000    65.93000000    22.02000000
   N    103.82000000    72.66000000    25.60000000
   C    103.42000000    74.03000000    25.35000000
   C    102.08000000    74.33000000    26.00000000
   O    101.96000000    74.11000000    27.20000000
   C    104.51000000    75.00000000    25.79000000
   C    104.21000000    76.37000000    25.20000000
   C    105.94000000    74.58000000    25.46000000
   H    104.15000000    72.49000000    26.54000000
   H    103.23000000    74.01000000    24.27000000
   H    104.42000000    75.16000000    26.87000000
   H    103.90000000    76.18000000    24.17000000
   H    103.30000000    76.80000000    25.62000000
   H    105.04000000    77.08000000    25.21000000
   H    106.09000000    74.36000000    24.41000000
   H    106.60000000    75.35000000    25.86000000
   H    106.13000000    73.69000000    26.05000000
   N    101.12000000    74.99000000    25.32000000
   C     99.93000000    75.56000000    25.92000000
   C     98.77000000    74.57000000    25.89000000
   O     97.69000000    74.75000000    26.45000000
   C     99.71000000    76.82000000    25.10000000
   C     98.31000000    77.37000000    25.37000000
   N     97.31000000    77.12000000    24.52000000
   O     98.00000000    77.95000000    26.40000000
   H    101.17000000    75.14000000    24.33000000
   H    100.00000000    75.92000000    26.95000000
   H     99.72000000    76.61000000    24.03000000
   H    100.40000000    77.63000000    25.32000000
   H     97.64000000    76.69000000    23.67000000
   H     96.40000000    77.55000000    24.60000000
   N     98.96000000    73.35000000    25.39000000
   C     98.06000000    72.23000000    25.25000000
   C     97.66000000    71.68000000    26.62000000
   O     98.54000000    71.39000000    27.43000000
   C     98.65000000    71.17000000    24.32000000
   C     98.96000000    71.79000000    22.98000000
   C    100.30000000    72.05000000    22.65000000
   C     97.95000000    71.89000000    22.02000000
   C    100.61000000    72.52000000    21.36000000
   C     98.29000000    72.37000000    20.75000000
   C     99.60000000    72.76000000    20.42000000
   O     99.80000000    73.22000000    19.15000000
   H     99.80000000    73.19000000    24.85000000
   H     97.19000000    72.62000000    24.73000000
   H     97.79000000    70.52000000    24.18000000
   H     99.51000000    70.67000000    24.76000000
   H    101.12000000    71.90000000    23.33000000
   H     96.91000000    71.63000000    22.19000000
   H    101.64000000    72.85000000    21.28000000
   H     97.46000000    72.45000000    20.07000000
   H    100.67000000    73.59000000    18.97000000
   N     96.37000000    71.63000000    26.96000000
   C     95.84000000    71.38000000    28.29000000
   C     96.07000000    72.46000000    29.33000000
   O     95.41000000    72.46000000    30.37000000
   C     96.10000000    69.96000000    28.80000000
   C     96.02000000    68.73000000    27.91000000
   C     94.91000000    68.77000000    26.86000000
   O     95.13000000    68.53000000    25.65000000
   O     93.79000000    69.06000000    27.33000000
   H     95.69000000    71.96000000    26.30000000
   H     94.76000000    71.38000000    28.25000000
   H     95.45000000    69.75000000    29.65000000
   H     97.12000000    69.95000000    29.19000000
   H     95.80000000    67.94000000    28.62000000
   H     96.96000000    68.58000000    27.38000000
   N     96.86000000    73.50000000    29.05000000
   C     97.08000000    74.62000000    29.95000000
   C     95.90000000    75.58000000    29.82000000
   O     95.61000000    76.30000000    30.77000000
   C     98.37000000    75.39000000    29.68000000
   C     99.53000000    74.40000000    29.70000000
   C     99.86000000    73.98000000    31.12000000
   O    100.78000000    73.14000000    31.28000000
   O     99.42000000    74.44000000    32.20000000
   H     97.23000000    73.55000000    28.11000000
   H     97.10000000    74.29000000    30.98000000
   H     98.46000000    76.17000000    30.43000000
   H     98.36000000    75.81000000    28.67000000
   H    100.39000000    75.01000000    29.41000000
   H     99.43000000    73.56000000    29.02000000
   N     95.22000000    75.61000000    28.67000000
   C     94.01000000    76.41000000    28.62000000
   H     93.21800000    75.90500000    29.17300000
   H     94.20000000    77.38500000    29.06800000
   H     93.70200000    76.54000000    27.58200000
   H     95.67000000    75.28000000    27.83000000
  Ca    101.32800000    73.47000000    33.79000000
   O     99.73800000    74.91000000    35.77000000
   H    100.10800000    75.09000000    36.64000000
   H     99.09800000    75.61000000    35.64000000
   O    101.36800000    72.07000000    36.01000000
   H    100.71800000    71.37000000    36.05000000
   H    101.37800000    72.45000000    36.89000000
   O     99.03000000    71.98000000    34.07000000
   H     98.76000000    71.62000000    34.92000000
   H     98.23000000    71.97000000    33.54000000

Ca 1.00



