%chk=loop4.holoCaM.run90.water2.chk
%nprocshared=20
%mem=10GB
%nosave
#b3lyp/svp scf=(tight,noincore,xqc) Test 
#IOP(5/87=12) Density=Current Pop=(MK,readradii) iop(6/33=2) iop(6/42=6)

loop4.holoCaM.run90.water2 

   -3  1 
   C     54.01000000    58.42000000    14.85000000
   C     55.40000000    57.80000000    14.91000000
   O     56.29000000    58.64000000    14.85000000
   H     53.31800000    57.81600000    15.43700000
   H     54.04500000    59.43100000    15.25600000
   H     53.67200000    58.45500000    13.81400000
   N     55.65000000    56.50000000    15.03000000
   C     56.99000000    55.98000000    15.23000000
   C     57.91000000    56.22000000    14.04000000
   O     57.70000000    55.68000000    12.95000000
   C     56.90000000    54.52000000    15.69000000
   C     58.19000000    53.75000000    15.90000000
   O     58.06000000    52.53000000    16.11000000
   O     59.29000000    54.34000000    15.82000000
   H     54.89000000    55.85000000    15.13000000
   H     57.41000000    56.52000000    16.08000000
   H     56.30000000    53.97000000    14.96000000
   H     56.40000000    54.51000000    16.65000000
   N     58.93000000    57.06000000    14.22000000
   C     59.77000000    57.61000000    13.18000000
   C     60.91000000    56.77000000    12.63000000
   O     61.70000000    57.19000000    11.79000000
   C     60.16000000    59.06000000    13.44000000
   C     60.37000000    59.76000000    12.10000000
   C     61.32000000    59.05000000    14.44000000
   C     60.15000000    61.26000000    12.28000000
   H     59.09000000    57.40000000    15.16000000
   H     59.03000000    57.74000000    12.39000000
   H     59.39000000    59.62000000    13.98000000
   H     59.65000000    59.40000000    11.37000000
   H     61.41000000    59.59000000    11.82000000
   H     62.27000000    58.74000000    14.02000000
   H     61.46000000    60.05000000    14.85000000
   H     61.12000000    58.41000000    15.30000000
   H     60.33000000    61.79000000    11.35000000
   H     59.17000000    61.58000000    12.65000000
   H     60.81000000    61.76000000    13.00000000
   N     61.09000000    55.54000000    13.12000000
   C     62.18000000    54.62000000    12.85000000
   C     61.83000000    53.15000000    13.00000000
   O     62.60000000    52.36000000    12.45000000
   C     63.30000000    54.92000000    13.85000000
   C     63.03000000    55.38000000    15.28000000
   O     63.85000000    56.07000000    15.92000000
   O     61.99000000    54.98000000    15.86000000
   H     60.45000000    55.19000000    13.81000000
   H     62.49000000    54.73000000    11.81000000
   H     63.91000000    55.73000000    13.46000000
   H     63.97000000    54.06000000    13.83000000
   N     60.75000000    52.76000000    13.68000000
   C     60.21000000    51.41000000    13.60000000
   C     60.51000000    50.58000000    14.84000000
   O     60.28000000    49.38000000    14.86000000
   H     60.26000000    53.49000000    14.16000000
   H     60.70000000    50.91000000    12.77000000
   H     59.14000000    51.52000000    13.43000000
   N     61.01000000    51.24000000    15.90000000
   C     61.51000000    50.56000000    17.08000000
   C     60.46000000    50.06000000    18.06000000
   O     60.76000000    49.26000000    18.94000000
   C     62.47000000    51.47000000    17.84000000
   C     61.93000000    52.81000000    18.34000000
   O     60.70000000    52.95000000    18.49000000
   O     62.72000000    53.72000000    18.66000000
   H     61.10000000    52.23000000    15.71000000
   H     62.05000000    49.67000000    16.76000000
   H     63.37000000    51.67000000    17.27000000
   H     62.80000000    50.90000000    18.71000000
   N     59.20000000    50.50000000    17.96000000
   C     58.12000000    50.17000000    18.86000000
   C     57.63000000    51.11000000    19.96000000
   O     56.75000000    50.77000000    20.74000000
   H     59.06000000    51.27000000    17.32000000
   H     58.21000000    49.17000000    19.29000000
   H     57.29000000    50.13000000    18.15000000
   N     58.22000000    52.30000000    20.08000000
   C     57.80000000    53.28000000    21.05000000
   C     57.61000000    54.64000000    20.41000000
   O     58.13000000    54.92000000    19.33000000
   C     58.76000000    53.30000000    22.24000000
   C     58.56000000    52.10000000    23.16000000
   C     59.65000000    52.18000000    24.22000000
   N     60.86000000    51.71000000    23.90000000
   O     59.45000000    52.77000000    25.28000000
   H     59.06000000    52.46000000    19.54000000
   H     56.82000000    53.04000000    21.46000000
   H     58.58000000    54.22000000    22.81000000
   H     59.77000000    53.43000000    21.86000000
   H     58.71000000    51.17000000    22.61000000
   H     57.57000000    52.19000000    23.62000000
   H     61.03000000    51.30000000    23.00000000
   H     61.64000000    51.84000000    24.53000000
   N     57.07000000    55.57000000    21.20000000
   C     57.07000000    56.99000000    20.90000000
   C     57.76000000    57.86000000    21.94000000
   O     57.50000000    57.76000000    23.14000000
   C     55.75000000    57.69000000    20.59000000
   C     54.98000000    56.97000000    19.49000000
   C     54.88000000    57.95000000    21.82000000
   H     56.62000000    55.34000000    22.07000000
   H     57.61000000    57.13000000    19.97000000
   H     55.94000000    58.67000000    20.15000000
   H     55.56000000    56.75000000    18.60000000
   H     54.43000000    56.07000000    19.76000000
   H     54.28000000    57.73000000    19.13000000
   H     54.94000000    57.13000000    22.54000000
   H     55.13000000    58.83000000    22.42000000
   H     53.84000000    58.10000000    21.56000000
   N     58.73000000    58.71000000    21.59000000
   C     59.15000000    59.78000000    22.47000000
   C     58.26000000    61.00000000    22.26000000
   O     57.29000000    61.02000000    21.51000000
   C     60.67000000    59.98000000    22.42000000
   C     61.17000000    60.80000000    21.24000000
   N     61.22000000    60.28000000    20.01000000
   O     61.50000000    61.96000000    21.48000000
   H     59.11000000    58.67000000    20.66000000
   H     58.95000000    59.47000000    23.49000000
   H     61.16000000    59.01000000    22.52000000
   H     60.95000000    60.44000000    23.37000000
   H     60.84000000    59.40000000    19.71000000
   H     61.79000000    60.84000000    19.39000000
   N     58.69000000    62.06000000    22.95000000
   C     58.06000000    63.36000000    22.87000000
   C     58.18000000    64.12000000    21.55000000
   O     57.25000000    64.86000000    21.26000000
   C     58.53000000    64.21000000    24.05000000
   C     59.99000000    64.07000000    24.41000000
   C     60.95000000    65.01000000    23.98000000
   C     60.39000000    63.07000000    25.30000000
   C     62.26000000    64.90000000    24.46000000
   C     61.69000000    62.96000000    25.80000000
   C     62.66000000    63.87000000    25.34000000
   O     63.94000000    63.69000000    25.77000000
   H     59.61000000    61.94000000    23.34000000
   H     57.01000000    63.22000000    23.10000000
   H     57.96000000    63.81000000    24.89000000
   H     58.22000000    65.24000000    23.87000000
   H     60.70000000    65.83000000    23.33000000
   H     59.66000000    62.32000000    25.57000000
   H     63.04000000    65.61000000    24.23000000
   H     61.93000000    62.27000000    26.59000000
   H     64.08000000    62.86000000    26.24000000
   N     59.19000000    63.79000000    20.74000000
   C     59.23000000    64.31000000    19.39000000
   C     58.31000000    63.55000000    18.45000000
   O     58.00000000    64.03000000    17.36000000
   C     60.64000000    64.33000000    18.80000000
   C     61.61000000    65.33000000    19.42000000
   C     62.82000000    65.34000000    18.49000000
   O     63.05000000    66.38000000    17.83000000
   O     63.51000000    64.31000000    18.36000000
   H     59.91000000    63.14000000    21.02000000
   H     58.84000000    65.32000000    19.36000000
   H     60.59000000    64.46000000    17.72000000
   H     61.09000000    63.33000000    18.85000000
   H     61.93000000    64.96000000    20.39000000
   H     61.16000000    66.31000000    19.53000000
   N     57.66000000    62.45000000    18.86000000
   C     56.88000000    61.60000000    17.99000000
   C     55.45000000    61.80000000    18.47000000
   O     54.60000000    61.89000000    17.58000000
   C     57.36000000    60.17000000    18.21000000
   C     58.75000000    59.84000000    17.65000000
   C     59.24000000    58.43000000    17.95000000
   O     59.72000000    58.17000000    19.07000000
   O     59.14000000    57.54000000    17.07000000
   H     57.99000000    61.99000000    19.69000000
   H     56.98000000    61.79000000    16.92000000
   H     56.65000000    59.41000000    17.90000000
   H     57.36000000    60.00000000    19.29000000
   H     59.47000000    60.58000000    17.99000000
   H     58.70000000    59.93000000    16.57000000
   N     55.22000000    61.98000000    19.77000000
   C     53.94000000    62.10000000    20.43000000
   H     53.18000000    61.58500000    19.84300000
   H     53.99800000    61.65100000    21.42200000
   H     53.67500000    63.15300000    20.52200000
   H     56.01000000    61.88000000    20.40000000
  Ca     60.34000000    55.48000000    17.82000000
   O     60.61000000    56.02000000    20.54000000
   H     61.51000000    55.91000000    20.85000000
   H     60.48000000    56.97000000    20.49000000
   O     62.37000000    57.23000000    17.97000000
   H     62.93000000    57.60000000    18.66000000
   H     62.97000000    57.05000000    17.25000000

Ca 1.00



