%chk=loop2.apoCaM-CA-Ng.Init293.run69.water6.chk
%nprocshared=20
%mem=10GB
%nosave
#b3lyp/svp scf=(tight,noincore,xqc) Test 
#IOP(5/87=12) Density=Current Pop=(MK,readradii) iop(6/33=2) iop(6/42=6)

loop2.apoCaM-CA-Ng.Init293.run69.water6 

   -2  1 
   C    100.93000000    83.07000000    39.75000000
   C    100.92000000    84.28000000    40.67000000
   O    100.22000000    85.26000000    40.45000000
   H    101.62900000    83.24200000    38.93200000
   H    101.23900000    82.18800000    40.31200000
   H     99.93000000    82.91200000    39.34500000
   N    101.63000000    84.29000000    41.80000000
   C    101.78000000    85.37000000    42.75000000
   C    102.35000000    86.69000000    42.26000000
   O    101.81000000    87.76000000    42.56000000
   C    102.57000000    84.74000000    43.90000000
   C    102.77000000    85.74000000    45.02000000
   O    103.91000000    86.02000000    45.44000000
   O    101.75000000    86.28000000    45.51000000
   H    102.27000000    83.52000000    41.95000000
   H    100.82000000    85.64000000    43.19000000
   H    103.58000000    84.54000000    43.55000000
   H    102.10000000    83.82000000    44.26000000
   N    103.29000000    86.57000000    41.32000000
   C    103.86000000    87.55000000    40.42000000
   C    102.76000000    88.36000000    39.74000000
   O    103.02000000    89.48000000    39.32000000
   C    104.91000000    88.28000000    41.25000000
   H    103.60000000    85.61000000    41.23000000
   H    104.36000000    87.07000000    39.57000000
   H    105.81000000    87.73000000    41.53000000
   H    105.24000000    89.18000000    40.74000000
   H    104.41000000    88.69000000    42.13000000
   N    101.54000000    87.82000000    39.63000000
   C    100.30000000    88.32000000    39.07000000
   C     99.82000000    89.60000000    39.75000000
   O     99.33000000    90.46000000    39.03000000
   C    100.29000000    88.33000000    37.54000000
   C    101.08000000    87.21000000    36.89000000
   O    101.56000000    87.42000000    35.75000000
   O    101.10000000    86.04000000    37.34000000
   H    101.39000000    86.92000000    40.06000000
   H     99.59000000    87.53000000    39.34000000
   H    100.85000000    89.21000000    37.24000000
   H     99.26000000    88.20000000    37.22000000
   N     99.94000000    89.80000000    41.06000000
   C     99.38000000    90.89000000    41.84000000
   C     97.87000000    91.03000000    41.83000000
   O     97.09000000    90.13000000    41.51000000
   H    100.44000000    89.10000000    41.59000000
   H     99.88000000    91.83000000    41.60000000
   H     99.69000000    90.66000000    42.86000000
   N     97.44000000    92.19000000    42.33000000
   C     96.11000000    92.75000000    42.25000000
   C     94.99000000    91.76000000    42.54000000
   O     93.96000000    91.77000000    41.88000000
   C     95.90000000    93.53000000    40.96000000
   C     94.76000000    94.53000000    41.10000000
   N     94.36000000    95.15000000    39.99000000
   O     94.42000000    94.92000000    42.22000000
   H     98.21000000    92.80000000    42.58000000
   H     96.14000000    93.50000000    43.04000000
   H     95.56000000    92.82000000    40.21000000
   H     96.86000000    93.88000000    40.57000000
   H     94.62000000    94.61000000    39.17000000
   H     93.51000000    95.68000000    40.03000000
   N     95.15000000    90.77000000    43.43000000
   C     94.13000000    89.85000000    43.89000000
   C     94.54000000    88.41000000    43.62000000
   O     93.93000000    87.48000000    44.15000000
   H     95.98000000    90.90000000    43.99000000
   H     93.13000000    90.07000000    43.53000000
   H     94.13000000    90.06000000    44.96000000
   N     95.59000000    88.19000000    42.83000000
   C     96.02000000    86.87000000    42.43000000
   C     95.04000000    86.27000000    41.43000000
   O     94.60000000    86.98000000    40.53000000
   C     97.49000000    86.82000000    42.00000000
   C     98.47000000    87.33000000    43.05000000
   O     97.84000000    85.46000000    41.91000000
   H     95.97000000    88.96000000    42.29000000
   H     95.99000000    86.23000000    43.31000000
   H     97.60000000    87.47000000    41.14000000
   H     98.63000000    85.39000000    41.37000000
   H     99.38000000    87.44000000    42.44000000
   H     98.23000000    88.33000000    43.41000000
   H     98.66000000    86.62000000    43.85000000
   N     94.76000000    84.97000000    41.46000000
   C     94.08000000    84.25000000    40.41000000
   C     94.77000000    84.43000000    39.06000000
   O     95.99000000    84.47000000    38.88000000
   C     93.94000000    82.75000000    40.67000000
   C     95.21000000    81.94000000    40.86000000
   C     92.94000000    82.60000000    41.82000000
   C     95.18000000    80.43000000    40.64000000
   H     95.26000000    84.41000000    42.14000000
   H     93.09000000    84.71000000    40.37000000
   H     93.44000000    82.30000000    39.81000000
   H     95.54000000    82.21000000    41.86000000
   H     95.74000000    82.31000000    39.98000000
   H     92.10000000    83.29000000    41.74000000
   H     92.53000000    81.59000000    41.74000000
   H     93.41000000    82.77000000    42.79000000
   H     96.22000000    80.12000000    40.77000000
   H     94.49000000    79.95000000    41.34000000
   H     94.89000000    80.23000000    39.61000000
   N     93.92000000    84.54000000    38.04000000
   C     94.18000000    84.71000000    36.63000000
   C     93.14000000    85.59000000    35.95000000
   O     92.73000000    85.44000000    34.80000000
   C     94.39000000    83.35000000    35.98000000
   C     94.96000000    83.45000000    34.57000000
   O     95.80000000    84.35000000    34.34000000
   O     94.59000000    82.66000000    33.68000000
   H     92.96000000    84.41000000    38.32000000
   H     95.17000000    85.17000000    36.60000000
   H     93.45000000    82.80000000    35.98000000
   H     95.06000000    82.69000000    36.54000000
   N     92.82000000    86.74000000    36.56000000
   C     91.86000000    87.76000000    36.19000000
   C     91.47000000    88.76000000    37.27000000
   O     91.16000000    89.90000000    36.94000000
   C     92.42000000    88.49000000    34.97000000
   C     91.42000000    89.34000000    34.21000000
   C     91.65000000    90.72000000    34.20000000
   C     90.41000000    88.83000000    33.40000000
   C     90.85000000    91.60000000    33.46000000
   C     89.60000000    89.71000000    32.67000000
   C     89.78000000    91.10000000    32.70000000
   H     93.33000000    86.88000000    37.42000000
   H     90.95000000    87.22000000    35.96000000
   H     92.87000000    87.77000000    34.28000000
   H     93.29000000    89.05000000    35.28000000
   H     92.34000000    91.09000000    34.94000000
   H     90.24000000    87.77000000    33.27000000
   H     91.07000000    92.66000000    33.43000000
   H     88.91000000    89.36000000    31.92000000
   H     89.20000000    91.80000000    32.12000000
   N     91.29000000    88.38000000    38.54000000
   C     91.42000000    87.07000000    39.16000000
   C     90.53000000    85.93000000    38.69000000
   O     91.00000000    84.84000000    38.37000000
   C     91.30000000    87.38000000    40.65000000
   C     91.64000000    88.85000000    40.84000000
   C     91.09000000    89.41000000    39.53000000
   H     92.46000000    86.79000000    39.01000000
   H     90.31000000    87.24000000    41.09000000
   H     92.01000000    86.79000000    41.22000000
   H     91.20000000    89.33000000    41.71000000
   H     92.73000000    88.87000000    40.81000000
   H     90.03000000    89.53000000    39.76000000
   H     91.49000000    90.41000000    39.33000000
   N     89.28000000    86.25000000    38.36000000
   C     88.21000000    85.42000000    37.83000000
   C     87.95000000    84.02000000    38.39000000
   O     87.51000000    83.09000000    37.72000000
   C     88.32000000    85.39000000    36.31000000
   C     88.11000000    86.77000000    35.70000000
   C     86.79000000    87.45000000    36.01000000
   O     86.56000000    88.05000000    37.09000000
   O     85.87000000    87.35000000    35.17000000
   H     89.09000000    87.23000000    38.50000000
   H     87.24000000    85.87000000    38.04000000
   H     87.69000000    84.67000000    35.79000000
   H     89.39000000    85.32000000    36.16000000
   H     88.33000000    86.60000000    34.65000000
   H     88.96000000    87.38000000    36.03000000
   N     88.19000000    83.81000000    39.69000000
   C     88.18000000    82.51000000    40.33000000
   H     87.41300000    82.49300000    41.10400000
   H     87.96400000    81.74100000    39.58800000
   H     89.15400000    82.31800000    40.78000000
   H     88.29000000    84.64000000    40.25000000
  Ca    102.48900000    84.78000000    35.35000000
   O    104.38900000    86.27000000    36.72000000
   H    105.10900000    86.31000000    37.35000000
   H    104.15900000    87.18000000    36.55000000
   O    102.55900000    82.47000000    33.68000000
   H    102.84900000    81.57000000    33.83000000
   H    102.42900000    82.52000000    32.73000000
   O    104.91900000    84.05000000    34.47000000
   H    104.90900000    83.21000000    34.93000000
   H    104.59900000    83.85000000    33.59000000
   O    100.44900000    83.22000000    35.91000000
   H     99.50900000    83.17000000    36.09000000
   H    100.62900000    82.44000000    35.38000000
   O    100.49900000    85.19000000    33.64000000
   H    100.50900000    85.68000000    32.82000000
   H     99.60900000    85.30000000    33.97000000
   O    103.20900000    85.99000000    33.21000000
   H    104.06900000    86.13000000    32.82000000
   H    102.64900000    86.65000000    32.81000000

Ca 1.00



