%chk=loop4.holoCaM-CaMKII.run86.water2.chk
%nprocshared=20
%mem=10GB
%nosave
#b3lyp/svp scf=(tight,noincore,xqc) Test 
#IOP(5/87=12) Density=Current Pop=(MK,readradii) iop(6/33=2) iop(6/42=6)

loop4.holoCaM-CaMKII.run86.water2 

   -3  1 
   C     54.49000000    30.01000000     9.13000000
   C     53.65000000    29.41000000    10.25000000
   O     52.88000000    30.14000000    10.87000000
   H     55.47100000    29.53600000     9.11900000
   H     53.99500000    29.84200000     8.17400000
   H     54.60700000    31.08100000     9.29600000
   N     53.81000000    28.13000000    10.58000000
   C     53.05000000    27.48000000    11.63000000
   C     53.51000000    27.97000000    12.99000000
   O     54.61000000    27.66000000    13.46000000
   C     53.21000000    25.96000000    11.49000000
   C     52.52000000    25.15000000    12.57000000
   O     53.02000000    24.07000000    12.95000000
   O     51.56000000    25.75000000    13.11000000
   H     54.51000000    27.56000000    10.13000000
   H     52.01000000    27.76000000    11.53000000
   H     54.26000000    25.70000000    11.37000000
   H     52.85000000    25.64000000    10.52000000
   N     52.74000000    28.84000000    13.66000000
   C     53.03000000    29.51000000    14.91000000
   C     52.34000000    29.00000000    16.16000000
   O     52.66000000    29.41000000    17.27000000
   C     53.00000000    31.03000000    14.72000000
   C     51.73000000    31.58000000    14.08000000
   C     54.21000000    31.31000000    13.83000000
   C     50.42000000    31.40000000    14.86000000
   H     51.96000000    29.14000000    13.10000000
   H     54.06000000    29.25000000    15.18000000
   H     53.25000000    31.55000000    15.64000000
   H     51.60000000    31.08000000    13.12000000
   H     52.03000000    32.61000000    13.94000000
   H     55.10000000    30.86000000    14.27000000
   H     54.07000000    30.95000000    12.81000000
   H     54.26000000    32.40000000    13.78000000
   H     49.79000000    32.20000000    14.45000000
   H     50.02000000    30.41000000    14.66000000
   H     50.51000000    31.50000000    15.94000000
   N     51.44000000    28.01000000    16.06000000
   C     50.60000000    27.57000000    17.16000000
   C     50.73000000    26.06000000    17.24000000
   O     50.27000000    25.48000000    18.22000000
   C     49.18000000    28.08000000    16.89000000
   C     48.51000000    27.79000000    15.55000000
   O     47.35000000    28.19000000    15.36000000
   O     49.14000000    27.19000000    14.66000000
   H     51.25000000    27.71000000    15.12000000
   H     50.94000000    27.97000000    18.11000000
   H     49.19000000    29.17000000    16.96000000
   H     48.54000000    27.69000000    17.68000000
   N     51.31000000    25.35000000    16.27000000
   C     51.94000000    24.07000000    16.48000000
   C     51.06000000    22.94000000    15.96000000
   O     50.63000000    22.09000000    16.75000000
   H     51.38000000    25.66000000    15.31000000
   H     52.16000000    23.84000000    17.52000000
   H     52.88000000    24.10000000    15.92000000
   N     50.64000000    22.94000000    14.69000000
   C     49.88000000    21.84000000    14.12000000
   C     50.50000000    21.22000000    12.88000000
   O     50.01000000    20.22000000    12.35000000
   C     48.45000000    22.29000000    13.86000000
   C     48.50000000    23.63000000    13.14000000
   O     49.40000000    23.86000000    12.30000000
   O     47.82000000    24.61000000    13.54000000
   H     50.76000000    23.75000000    14.11000000
   H     49.87000000    21.02000000    14.83000000
   H     47.90000000    22.42000000    14.80000000
   H     47.96000000    21.50000000    13.30000000
   N     51.69000000    21.70000000    12.51000000
   C     52.27000000    21.29000000    11.25000000
   C     51.52000000    21.61000000     9.96000000
   O     51.87000000    21.02000000     8.93000000
   H     51.94000000    22.59000000    12.91000000
   H     52.49000000    20.23000000    11.21000000
   H     53.16000000    21.90000000    11.13000000
   N     50.51000000    22.47000000    10.03000000
   C     49.89000000    23.00000000     8.82000000
   C     49.80000000    24.52000000     8.84000000
   O     49.90000000    25.14000000     9.90000000
   C     48.50000000    22.40000000     8.66000000
   C     48.43000000    20.95000000     8.18000000
   C     47.00000000    20.54000000     7.89000000
   N     46.33000000    19.80000000     8.77000000
   O     46.35000000    20.91000000     6.92000000
   H     50.25000000    22.97000000    10.86000000
   H     50.50000000    22.73000000     7.96000000
   H     48.06000000    22.94000000     7.83000000
   H     47.86000000    22.63000000     9.51000000
   H     48.77000000    20.25000000     8.95000000
   H     49.16000000    20.74000000     7.40000000
   H     46.87000000    19.37000000     9.51000000
   H     45.42000000    19.40000000     8.56000000
   N     49.53000000    25.13000000     7.69000000
   C     49.36000000    26.56000000     7.50000000
   C     47.94000000    26.93000000     7.10000000
   O     47.32000000    26.36000000     6.21000000
   C     50.32000000    27.05000000     6.42000000
   C     50.14000000    28.50000000     5.97000000
   C     51.71000000    26.91000000     7.04000000
   H     49.15000000    24.60000000     6.92000000
   H     49.62000000    27.12000000     8.40000000
   H     50.23000000    26.52000000     5.47000000
   H     49.98000000    29.14000000     6.84000000
   H     51.00000000    28.82000000     5.37000000
   H     49.30000000    28.52000000     5.28000000
   H     51.72000000    27.57000000     7.90000000
   H     52.04000000    25.91000000     7.30000000
   H     52.45000000    27.26000000     6.32000000
   N     47.36000000    27.89000000     7.83000000
   C     46.07000000    28.55000000     7.70000000
   C     46.24000000    29.78000000     6.82000000
   O     47.38000000    30.14000000     6.51000000
   C     45.53000000    28.82000000     9.10000000
   C     44.01000000    28.87000000     9.22000000
   N     43.52000000    29.27000000    10.40000000
   O     43.37000000    28.91000000     8.18000000
   H     47.91000000    28.19000000     8.62000000
   H     45.41000000    27.96000000     7.07000000
   H     45.87000000    29.81000000     9.42000000
   H     45.83000000    27.97000000     9.70000000
   H     44.06000000    29.54000000    11.21000000
   H     42.52000000    29.41000000    10.37000000
   N     45.13000000    30.39000000     6.40000000
   C     45.23000000    31.65000000     5.68000000
   C     45.86000000    32.78000000     6.48000000
   O     46.69000000    33.48000000     5.90000000
   C     43.88000000    32.13000000     5.16000000
   C     43.93000000    33.39000000     4.34000000
   C     44.65000000    33.33000000     3.14000000
   C     43.11000000    34.50000000     4.55000000
   C     44.67000000    34.42000000     2.27000000
   C     43.08000000    35.58000000     3.66000000
   C     43.90000000    35.58000000     2.52000000
   O     43.79000000    36.58000000     1.60000000
   H     44.26000000    29.92000000     6.58000000
   H     45.79000000    31.51000000     4.75000000
   H     43.09000000    32.08000000     5.91000000
   H     43.48000000    31.29000000     4.59000000
   H     45.33000000    32.50000000     2.99000000
   H     42.43000000    34.52000000     5.39000000
   H     45.42000000    34.43000000     1.49000000
   H     42.43000000    36.43000000     3.85000000
   H     43.45000000    37.37000000     2.04000000
   N     45.52000000    32.96000000     7.76000000
   C     46.11000000    33.96000000     8.62000000
   C     47.58000000    33.74000000     8.93000000
   O     48.27000000    34.69000000     9.29000000
   C     45.25000000    33.99000000     9.88000000
   C     45.56000000    35.15000000    10.83000000
   C     44.38000000    35.61000000    11.67000000
   O     44.17000000    34.96000000    12.72000000
   O     43.81000000    36.68000000    11.37000000
   H     44.79000000    32.41000000     8.19000000
   H     46.05000000    34.96000000     8.19000000
   H     45.29000000    33.09000000    10.49000000
   H     44.23000000    34.17000000     9.54000000
   H     45.87000000    36.04000000    10.29000000
   H     46.43000000    34.92000000    11.44000000
   N     48.16000000    32.57000000     8.64000000
   C     49.58000000    32.30000000     8.68000000
   C     50.21000000    32.43000000     7.30000000
   O     51.39000000    32.78000000     7.25000000
   C     49.75000000    30.85000000     9.14000000
   C     49.55000000    30.68000000    10.64000000
   C     49.57000000    29.22000000    11.06000000
   O     50.16000000    28.90000000    12.12000000
   O     49.06000000    28.29000000    10.40000000
   H     47.54000000    31.86000000     8.27000000
   H     50.07000000    32.92000000     9.43000000
   H     50.77000000    30.54000000     8.92000000
   H     49.13000000    30.15000000     8.58000000
   H     48.56000000    31.05000000    10.92000000
   H     50.24000000    31.33000000    11.17000000
   N     49.52000000    32.32000000     6.16000000
   C     50.04000000    32.50000000     4.82000000
   H     51.06300000    32.12600000     4.77500000
   H     49.42100000    31.94900000     4.11200000
   H     50.02900000    33.56000000     4.56500000
   H     48.62000000    31.86000000     6.16000000
  Ca     49.21000000    26.51000000    12.17000000
   O     46.96000000    27.95000000    12.57000000
   H     47.27000000    28.11000000    13.46000000
   H     46.08000000    28.32000000    12.55000000
   O     46.97000000    25.77000000    10.64000000
   H     46.12000000    25.58000000    11.04000000
   H     46.81000000    25.68000000     9.70000000

Ca 1.00



