%chk=loop4.apoCaM-CA-Ng.Init295.run99.water4.chk
%nprocshared=20
%mem=10GB
%nosave
#b3lyp/svp scf=(tight,noincore,xqc) Test 
#IOP(5/87=12) Density=Current Pop=(MK,readradii) iop(6/33=2) iop(6/42=6)

loop4.apoCaM-CA-Ng.Init295.run99.water4 

   -3  1 
   C     14.95000000    83.86000000    84.47000000
   C     13.74000000    83.28000000    85.19000000
   O     12.60000000    83.54000000    84.80000000
   H     15.80300000    83.19500000    84.60100000
   H     14.72800000    83.96000000    83.40800000
   H     15.18600000    84.83900000    84.88600000
   N     13.91000000    82.61000000    86.33000000
   C     12.93000000    81.74000000    86.95000000
   C     12.08000000    80.93000000    85.99000000
   O     10.86000000    81.09000000    85.96000000
   C     12.10000000    82.61000000    87.89000000
   C     12.87000000    83.49000000    88.87000000
   O     13.32000000    83.00000000    89.92000000
   O     12.84000000    84.73000000    88.77000000
   H     14.86000000    82.55000000    86.69000000
   H     13.46000000    80.98000000    87.53000000
   H     11.44000000    81.98000000    88.49000000
   H     11.47000000    83.25000000    87.27000000
   N     12.72000000    80.02000000    85.26000000
   C     12.03000000    79.10000000    84.39000000
   C     11.86000000    77.74000000    85.06000000
   O     12.86000000    77.07000000    85.33000000
   C     12.70000000    78.97000000    83.02000000
   C     12.57000000    80.29000000    82.27000000
   C     12.28000000    77.79000000    82.15000000
   C     13.67000000    80.39000000    81.22000000
   H     13.73000000    79.91000000    85.30000000
   H     11.02000000    79.47000000    84.22000000
   H     13.76000000    78.83000000    83.24000000
   H     12.86000000    81.16000000    82.85000000
   H     11.60000000    80.44000000    81.79000000
   H     13.00000000    77.72000000    81.33000000
   H     12.48000000    76.84000000    82.65000000
   H     11.28000000    77.96000000    81.76000000
   H     14.68000000    80.31000000    81.64000000
   H     13.68000000    79.54000000    80.55000000
   H     13.51000000    81.35000000    80.73000000
   N     10.66000000    77.24000000    85.32000000
   C      9.36000000    77.86000000    85.18000000
   C      8.50000000    77.50000000    86.39000000
   O      7.31000000    77.25000000    86.19000000
   C      8.77000000    77.49000000    83.82000000
   C      8.73000000    76.05000000    83.32000000
   O      9.10000000    75.12000000    84.06000000
   O      8.21000000    75.87000000    82.20000000
   H     10.70000000    76.23000000    85.43000000
   H      9.40000000    78.95000000    85.18000000
   H      9.29000000    78.12000000    83.11000000
   H      7.75000000    77.87000000    83.83000000
   N      9.11000000    77.19000000    87.54000000
   C      8.47000000    76.79000000    88.77000000
   C      7.55000000    75.59000000    88.61000000
   O      7.98000000    74.51000000    88.20000000
   H     10.11000000    77.08000000    87.49000000
   H      7.83000000    77.61000000    89.10000000
   H      9.24000000    76.60000000    89.51000000
   N      6.25000000    75.82000000    88.78000000
   C      5.21000000    74.83000000    88.61000000
   C      4.39000000    74.98000000    87.33000000
   O      3.25000000    74.54000000    87.21000000
   C      4.26000000    74.75000000    89.80000000
   C      5.05000000    74.72000000    91.10000000
   O      5.87000000    73.79000000    91.26000000
   O      4.93000000    75.59000000    91.99000000
   H      6.02000000    76.76000000    89.06000000
   H      5.67000000    73.86000000    88.41000000
   H      3.65000000    73.85000000    89.69000000
   H      3.62000000    75.64000000    89.85000000
   N      4.97000000    75.72000000    86.39000000
   C      4.33000000    76.28000000    85.21000000
   C      3.39000000    77.45000000    85.46000000
   O      2.67000000    77.96000000    84.59000000
   H      5.89000000    76.08000000    86.61000000
   H      3.70000000    75.53000000    84.75000000
   H      5.13000000    76.61000000    84.55000000
   N      3.27000000    77.90000000    86.71000000
   C      2.36000000    78.90000000    87.22000000
   C      2.61000000    80.32000000    86.71000000
   O      1.81000000    81.24000000    86.82000000
   C      0.88000000    78.54000000    87.27000000
   C      0.59000000    77.13000000    87.76000000
   C      1.01000000    76.90000000    89.20000000
   N      1.09000000    75.69000000    89.76000000
   O      1.07000000    77.81000000    90.02000000
   H      3.86000000    77.42000000    87.38000000
   H      2.69000000    79.02000000    88.25000000
   H      0.40000000    78.77000000    86.32000000
   H      0.38000000    79.15000000    88.02000000
   H      1.15000000    76.43000000    87.14000000
   H     -0.48000000    76.89000000    87.79000000
   H      0.83000000    74.89000000    89.19000000
   H      1.30000000    75.63000000    90.74000000
   N      3.83000000    80.59000000    86.27000000
   C      4.31000000    81.83000000    85.67000000
   C      4.56000000    82.83000000    86.79000000
   O      5.10000000    82.49000000    87.85000000
   C      5.49000000    81.66000000    84.73000000
   C      6.68000000    80.95000000    85.37000000
   C      4.99000000    80.90000000    83.50000000
   H      4.43000000    79.79000000    86.16000000
   H      3.58000000    82.23000000    84.96000000
   H      5.75000000    82.68000000    84.45000000
   H      7.16000000    81.55000000    86.15000000
   H      6.31000000    80.01000000    85.79000000
   H      7.44000000    80.68000000    84.64000000
   H      5.84000000    80.85000000    82.82000000
   H      4.70000000    79.88000000    83.75000000
   H      4.20000000    81.44000000    82.97000000
   N      4.38000000    84.12000000    86.53000000
   C      5.03000000    85.24000000    87.19000000
   C      5.54000000    86.27000000    86.20000000
   O      5.30000000    86.18000000    84.99000000
   C      3.98000000    85.98000000    88.01000000
   C      3.67000000    85.29000000    89.34000000
   N      4.50000000    85.61000000    90.33000000
   O      2.66000000    84.66000000    89.62000000
   H      4.05000000    84.19000000    85.58000000
   H      5.88000000    84.91000000    87.79000000
   H      3.09000000    86.00000000    87.38000000
   H      4.25000000    87.03000000    88.08000000
   H      5.26000000    86.27000000    90.23000000
   H      4.30000000    85.25000000    91.26000000
   N      6.20000000    87.34000000    86.66000000
   C      6.67000000    88.45000000    85.86000000
   C      7.76000000    89.17000000    86.64000000
   O      7.60000000    89.60000000    87.78000000
   C      5.63000000    89.47000000    85.44000000
   C      6.17000000    90.59000000    84.57000000
   C      6.32000000    90.40000000    83.19000000
   C      6.52000000    91.82000000    85.12000000
   C      6.61000000    91.54000000    82.42000000
   C      6.90000000    92.93000000    84.35000000
   C      6.80000000    92.83000000    82.95000000
   O      7.10000000    93.84000000    82.09000000
   H      6.32000000    87.38000000    87.66000000
   H      7.08000000    88.09000000    84.91000000
   H      5.10000000    89.91000000    86.28000000
   H      4.90000000    88.98000000    84.79000000
   H      6.22000000    89.39000000    82.83000000
   H      6.69000000    91.92000000    86.19000000
   H      6.61000000    91.47000000    81.34000000
   H      7.15000000    93.85000000    84.86000000
   H      7.29000000    94.63000000    82.59000000
   N      8.88000000    89.41000000    85.94000000
   C      9.94000000    90.26000000    86.45000000
   C     10.71000000    90.86000000    85.29000000
   O     10.81000000    92.07000000    85.11000000
   C     10.87000000    89.57000000    87.45000000
   C     12.05000000    90.35000000    88.01000000
   C     12.91000000    89.78000000    89.13000000
   O     12.88000000    88.57000000    89.44000000
   O     13.69000000    90.52000000    89.77000000
   H      9.05000000    88.96000000    85.05000000
   H      9.54000000    91.06000000    87.08000000
   H     11.17000000    88.60000000    87.06000000
   H     10.24000000    89.30000000    88.30000000
   H     11.63000000    91.29000000    88.36000000
   H     12.72000000    90.48000000    87.15000000
   N     11.40000000    90.13000000    84.41000000
   C     11.55000000    88.71000000    84.17000000
   C     10.64000000    88.20000000    83.06000000
   O      9.91000000    89.01000000    82.48000000
   C     13.00000000    88.50000000    83.74000000
   C     14.07000000    88.96000000    84.73000000
   C     14.18000000    88.16000000    86.02000000
   O     13.55000000    87.11000000    86.27000000
   O     14.93000000    88.67000000    86.88000000
   H     11.90000000    90.66000000    83.71000000
   H     11.35000000    88.13000000    85.07000000
   H     13.09000000    89.11000000    82.84000000
   H     13.20000000    87.47000000    83.45000000
   H     13.78000000    89.96000000    85.05000000
   H     15.05000000    89.02000000    84.26000000
   N     10.53000000    86.91000000    82.74000000
   C      9.63000000    86.31000000    81.78000000
   H      8.74300000    86.93500000    81.67400000
   H     10.13100000    86.22400000    80.81600000
   H      9.33600000    85.31900000    82.12700000
   H     11.05000000    86.28000000    83.33000000
  Ca     14.64000000    86.55000000    88.70000000
   O     15.83000000    84.39000000    89.93000000
   H     15.24000000    83.82000000    90.42000000
   H     16.63000000    83.88000000    89.82000000
   O     14.15000000    86.54000000    91.30000000
   H     13.82000000    87.42000000    91.50000000
   H     14.64000000    86.29000000    92.08000000
   O     15.68000000    88.80000000    89.76000000
   H     14.87000000    89.30000000    89.89000000
   H     16.17000000    89.30000000    89.11000000
   O     17.44000000    86.71000000    88.97000000
   H     17.91000000    86.54000000    89.78000000
   H     17.99000000    87.35000000    88.51000000

Ca 1.00



