%chk=loop2.holoCaM-CaMKII.run72.water1.chk
%nprocshared=20
%mem=10GB
%nosave
#b3lyp/svp scf=(tight,noincore,xqc) Test 
#IOP(5/87=12) Density=Current Pop=(MK,readradii) iop(6/33=2) iop(6/42=6)

loop2.holoCaM-CaMKII.run72.water1 

   -2  1 
   C     19.61000000    62.68000000   105.94200000
   C     20.37000000    63.98000000   106.17200000
   O     21.45000000    64.00000000   106.76200000
   H     18.66600000    62.89500000   105.44200000
   H     20.20700000    62.01500000   105.31900000
   H     19.41100000    62.20000000   106.90000000
   N     19.87000000    65.12000000   105.69200000
   C     20.42000000    66.45000000   105.87200000
   C     20.28000000    66.91000000   107.31200000
   O     19.30000000    66.63000000   108.00200000
   C     19.74000000    67.33000000   104.83200000
   C     20.33000000    68.73000000   104.91200000
   O     21.54000000    69.01000000   105.04200000
   O     19.48000000    69.62000000   104.65200000
   H     18.99000000    65.06000000   105.21200000
   H     21.50000000    66.45000000   105.71200000
   H     18.70000000    67.33000000   105.13200000
   H     19.86000000    66.91000000   103.83200000
   N     21.22000000    67.73000000   107.79200000
   C     21.16000000    68.48000000   109.02200000
   C     21.71000000    69.90000000   108.94200000
   O     21.73000000    70.59000000   109.95200000
   C     21.83000000    67.65000000   110.11200000
   H     22.02000000    67.88000000   107.19200000
   H     20.12000000    68.65000000   109.32200000
   H     21.59000000    68.09000000   111.08200000
   H     21.42000000    66.65000000   110.14200000
   H     22.91000000    67.55000000   109.99200000
   N     22.04000000    70.37000000   107.73200000
   C     22.65000000    71.66000000   107.51200000
   C     21.86000000    72.53000000   106.55200000
   O     21.98000000    73.75000000   106.59200000
   C     24.16000000    71.64000000   107.25200000
   C     24.49000000    70.96000000   105.93200000
   O     23.77000000    71.12000000   104.92200000
   O     25.37000000    70.08000000   105.88200000
   H     21.95000000    69.68000000   107.00200000
   H     22.57000000    72.19000000   108.47200000
   H     24.60000000    71.02000000   108.04200000
   H     24.60000000    72.64000000   107.21200000
   N     21.09000000    71.91000000   105.65200000
   C     20.18000000    72.59000000   104.75200000
   C     20.78000000    72.98000000   103.41200000
   O     20.16000000    73.57000000   102.52200000
   H     21.10000000    70.90000000   105.58200000
   H     20.04000000    73.56000000   105.22200000
   H     19.20000000    72.12000000   104.63200000
   N     22.03000000    72.55000000   103.20200000
   C     22.80000000    72.95000000   102.04200000
   C     22.45000000    72.26000000   100.73200000
   O     22.90000000    72.76000000    99.70200000
   C     24.29000000    72.95000000   102.40200000
   C     24.88000000    71.55000000   102.37200000
   N     26.15000000    71.49000000   102.79200000
   O     24.28000000    70.56000000   101.96200000
   H     22.44000000    72.07000000   103.99200000
   H     22.55000000    73.99000000   101.83200000
   H     24.35000000    73.35000000   103.41200000
   H     24.86000000    73.59000000   101.73200000
   H     26.56000000    72.33000000   103.17200000
   H     26.64000000    70.61000000   102.76200000
   N     21.58000000    71.25000000   100.74200000
   C     21.07000000    70.68000000    99.51200000
   C     22.06000000    69.73000000    98.84200000
   O     21.86000000    69.38000000    97.68200000
   H     21.14000000    70.99000000   101.60200000
   H     20.84000000    71.52000000    98.85200000
   H     20.13000000    70.14000000    99.56200000
   N     23.02000000    69.13000000    99.55200000
   C     23.95000000    68.10000000    99.14200000
   C     24.29000000    67.20000000   100.32200000
   O     24.20000000    67.54000000   101.50200000
   C     25.24000000    68.73000000    98.65200000
   C     25.13000000    69.59000000    97.39200000
   O     25.79000000    69.53000000    99.66200000
   H     23.12000000    69.42000000   100.52200000
   H     23.49000000    67.45000000    98.39200000
   H     26.03000000    68.01000000    98.41200000
   H     25.13000000    69.63000000   100.35200000
   H     26.17000000    69.87000000    97.21200000
   H     24.74000000    68.97000000    96.59200000
   H     24.58000000    70.53000000    97.45200000
   N     24.68000000    65.96000000   100.02200000
   C     25.24000000    65.10000000   101.04200000
   C     26.67000000    65.53000000   101.31200000
   O     27.48000000    65.82000000   100.43200000
   C     25.10000000    63.61000000   100.75200000
   C     23.71000000    63.15000000   100.29200000
   C     25.53000000    62.82000000   101.99200000
   C     23.63000000    61.67000000    99.94200000
   H     24.80000000    65.64000000    99.07200000
   H     24.65000000    65.24000000   101.95200000
   H     25.84000000    63.38000000    99.99200000
   H     23.54000000    63.73000000    99.38200000
   H     22.92000000    63.35000000   101.00200000
   H     24.92000000    63.18000000   102.82200000
   H     25.32000000    61.76000000   101.84200000
   H     26.60000000    62.86000000   102.20200000
   H     22.70000000    61.40000000    99.44200000
   H     24.43000000    61.52000000    99.22200000
   H     23.73000000    61.03000000   100.82200000
   N     26.99000000    65.66000000   102.60200000
   C     28.29000000    65.80000000   103.21200000
   C     28.72000000    64.49000000   103.84200000
   O     27.87000000    63.75000000   104.35200000
   C     28.21000000    66.94000000   104.22200000
   C     27.64000000    68.19000000   103.56200000
   O     26.42000000    68.49000000   103.63200000
   O     28.43000000    68.99000000   103.02200000
   H     26.24000000    65.54000000   103.27200000
   H     29.00000000    65.97000000   102.40200000
   H     29.14000000    67.17000000   104.74200000
   H     27.61000000    66.75000000   105.11200000
   N     30.03000000    64.24000000   103.97200000
   C     30.52000000    62.99000000   104.51200000
   C     30.03000000    62.61000000   105.90200000
   O     29.66000000    61.46000000   106.12200000
   C     32.03000000    62.85000000   104.38200000
   C     32.50000000    61.53000000   104.93200000
   C     33.34000000    61.45000000   106.05200000
   C     32.22000000    60.32000000   104.28200000
   C     33.88000000    60.25000000   106.53200000
   C     32.61000000    59.10000000   104.85200000
   C     33.37000000    59.05000000   106.02200000
   H     30.70000000    64.99000000   103.88200000
   H     30.05000000    62.20000000   103.93200000
   H     32.61000000    63.62000000   104.89200000
   H     32.37000000    63.00000000   103.35200000
   H     33.65000000    62.33000000   106.60200000
   H     31.52000000    60.45000000   103.47200000
   H     34.46000000    60.14000000   107.44200000
   H     32.29000000    58.18000000   104.39200000
   H     33.62000000    58.11000000   106.49200000
   N     29.80000000    63.53000000   106.84200000
   C     29.24000000    63.24000000   108.15200000
   C     27.79000000    62.79000000   108.06200000
   O     27.26000000    62.31000000   109.05200000
   C     29.28000000    64.60000000   108.83200000
   C     30.47000000    65.35000000   108.26200000
   C     30.41000000    64.84000000   106.82200000
   H     29.88000000    62.52000000   108.67200000
   H     28.36000000    65.14000000   108.58200000
   H     29.37000000    64.54000000   109.92200000
   H     30.36000000    66.43000000   108.29200000
   H     31.45000000    65.05000000   108.65200000
   H     29.70000000    65.46000000   106.27200000
   H     31.40000000    64.82000000   106.36200000
   N     27.09000000    63.07000000   106.95200000
   C     25.71000000    62.75000000   106.67200000
   C     25.68000000    61.51000000   105.79200000
   O     24.75000000    60.71000000   105.89200000
   C     25.06000000    63.93000000   105.95200000
   C     24.78000000    65.20000000   106.75200000
   C     24.31000000    66.36000000   105.89200000
   O     23.82000000    67.39000000   106.41200000
   O     24.26000000    66.25000000   104.65200000
   H     27.63000000    63.60000000   106.28200000
   H     25.20000000    62.49000000   107.60200000
   H     24.17000000    63.56000000   105.44200000
   H     25.67000000    64.16000000   105.07200000
   H     25.68000000    65.50000000   107.28200000
   H     23.94000000    65.02000000   107.42200000
   N     26.66000000    61.25000000   104.92200000
   C     26.88000000    60.00000000   104.23200000
   H     27.88200000    59.63400000   104.45500000
   H     26.14400000    59.26700000   104.56300000
   H     26.78100000    60.15500000   103.15800000
   H     27.30000000    61.99000000   104.67200000
  Ca     23.97000000    68.66000000   103.98200000
   O     21.62000000    68.34000000   102.19200000
   H     20.70000000    68.58000000   102.27200000
   H     21.61000000    67.40000000   102.00200000

Ca 1.00



