%chk=loop2.apoCaM-CA-Ng.Init295.run77.water3.chk
%nprocshared=20
%mem=10GB
%nosave
#b3lyp/svp scf=(tight,noincore,xqc) Test 
#IOP(5/87=12) Density=Current Pop=(MK,readradii) iop(6/33=2) iop(6/42=6)

loop2.apoCaM-CA-Ng.Init295.run77.water3 

   -2  1 
   C     17.95000000     1.42000000    49.47000000
   C     19.06000000     2.08000000    50.28000000
   O     19.09000000     3.31000000    50.29000000
   H     17.10300000     2.10200000    49.39200000
   H     18.31900000     1.18400000    48.47200000
   H     17.63300000     0.50300000    49.96700000
   N     19.85000000     1.32000000    51.05000000
   C     20.67000000     1.77000000    52.15000000
   C     19.92000000     1.81000000    53.47000000
   O     20.35000000     1.12000000    54.39000000
   C     22.07000000     1.15000000    52.17000000
   C     23.12000000     1.61000000    53.17000000
   O     23.99000000     0.82000000    53.61000000
   O     23.07000000     2.80000000    53.55000000
   H     19.80000000     0.34000000    50.81000000
   H     20.78000000     2.84000000    51.95000000
   H     22.58000000     1.26000000    51.22000000
   H     21.87000000     0.10000000    52.40000000
   N     18.82000000     2.58000000    53.50000000
   C     18.29000000     3.19000000    54.70000000
   C     16.98000000     2.46000000    54.93000000
   O     16.28000000     2.07000000    53.99000000
   C     18.39000000     4.70000000    54.50000000
   H     18.63000000     2.92000000    52.57000000
   H     18.83000000     2.97000000    55.62000000
   H     17.98000000     5.03000000    53.55000000
   H     17.92000000     5.25000000    55.33000000
   H     19.44000000     4.97000000    54.55000000
   N     16.43000000     2.35000000    56.14000000
   C     16.86000000     2.99000000    57.37000000
   C     16.54000000     2.13000000    58.58000000
   O     15.56000000     1.39000000    58.57000000
   C     16.09000000     4.30000000    57.46000000
   C     16.77000000     5.27000000    58.41000000
   O     18.01000000     5.28000000    58.59000000
   O     16.10000000     6.12000000    59.04000000
   H     15.48000000     2.00000000    56.09000000
   H     17.94000000     3.08000000    57.54000000
   H     15.05000000     4.19000000    57.76000000
   H     16.09000000     4.80000000    56.49000000
   N     17.38000000     1.96000000    59.61000000
   C     17.22000000     0.96000000    60.64000000
   C     18.03000000    -0.30000000    60.36000000
   O     19.16000000    -0.33000000    59.89000000
   H     18.27000000     2.44000000    59.62000000
   H     16.19000000     0.63000000    60.79000000
   H     17.58000000     1.32000000    61.60000000
   N     17.58000000    -1.52000000    60.66000000
   C     16.33000000    -1.86000000    61.32000000
   C     15.18000000    -1.73000000    60.34000000
   O     15.25000000    -2.03000000    59.14000000
   C     16.42000000    -3.28000000    61.89000000
   C     15.39000000    -3.51000000    62.99000000
   N     15.91000000    -3.70000000    64.21000000
   O     14.21000000    -3.72000000    62.75000000
   H     18.07000000    -2.29000000    60.23000000
   H     16.21000000    -1.18000000    62.16000000
   H     17.37000000    -3.45000000    62.40000000
   H     16.34000000    -4.03000000    61.11000000
   H     16.85000000    -3.54000000    64.55000000
   H     15.18000000    -4.03000000    64.82000000
   N     14.10000000    -1.14000000    60.84000000
   C     12.97000000    -0.68000000    60.05000000
   C     12.35000000     0.64000000    60.48000000
   O     11.15000000     0.86000000    60.62000000
   H     14.04000000    -0.96000000    61.83000000
   H     12.15000000    -1.41000000    60.10000000
   H     13.29000000    -0.67000000    59.01000000
   N     13.23000000     1.59000000    60.81000000
   C     12.82000000     2.88000000    61.34000000
   C     12.69000000     3.91000000    60.23000000
   O     13.16000000     5.04000000    60.25000000
   C     13.60000000     3.32000000    62.57000000
   C     13.11000000     2.54000000    63.79000000
   O     14.95000000     3.07000000    62.26000000
   H     14.23000000     1.42000000    60.76000000
   H     11.79000000     2.86000000    61.69000000
   H     13.59000000     4.40000000    62.73000000
   H     15.43000000     2.76000000    63.03000000
   H     13.70000000     2.72000000    64.69000000
   H     12.08000000     2.84000000    64.01000000
   H     13.16000000     1.47000000    63.60000000
   N     12.14000000     3.43000000    59.11000000
   C     11.86000000     4.15000000    57.88000000
   C     10.68000000     5.06000000    58.18000000
   O      9.79000000     4.72000000    58.95000000
   C     11.56000000     3.11000000    56.81000000
   C     12.87000000     2.44000000    56.41000000
   C     10.50000000     2.09000000    57.24000000
   C     12.78000000     1.55000000    55.17000000
   H     11.72000000     2.52000000    59.22000000
   H     12.75000000     4.70000000    57.57000000
   H     11.15000000     3.65000000    55.95000000
   H     13.36000000     1.89000000    57.21000000
   H     13.57000000     3.26000000    56.19000000
   H      9.69000000     2.54000000    57.82000000
   H     10.10000000     1.63000000    56.34000000
   H     10.92000000     1.27000000    57.82000000
   H     12.57000000     2.24000000    54.35000000
   H     13.77000000     1.14000000    54.97000000
   H     12.01000000     0.78000000    55.20000000
   N     10.70000000     6.25000000    57.58000000
   C      9.60000000     7.21000000    57.55000000
   C      9.28000000     7.65000000    56.13000000
   O     10.14000000     8.04000000    55.35000000
   C      9.85000000     8.45000000    58.40000000
   C     10.59000000     8.14000000    59.70000000
   O      9.90000000     7.95000000    60.72000000
   O     11.84000000     8.08000000    59.68000000
   H     11.56000000     6.48000000    57.10000000
   H      8.76000000     6.64000000    57.96000000
   H      8.89000000     8.88000000    58.67000000
   H     10.42000000     9.15000000    57.79000000
   N      7.97000000     7.76000000    55.87000000
   C      7.54000000     8.38000000    54.64000000
   C      8.16000000     7.77000000    53.38000000
   O      7.91000000     6.62000000    53.03000000
   C      6.02000000     8.28000000    54.54000000
   C      5.42000000     9.40000000    53.73000000
   C      5.47000000     9.28000000    52.34000000
   C      4.74000000    10.46000000    54.35000000
   C      4.84000000    10.26000000    51.56000000
   C      4.21000000    11.49000000    53.56000000
   C      4.26000000    11.38000000    52.17000000
   H      7.30000000     7.66000000    56.62000000
   H      7.97000000     9.38000000    54.71000000
   H      5.66000000     8.33000000    55.56000000
   H      5.67000000     7.31000000    54.18000000
   H      5.90000000     8.39000000    51.91000000
   H      4.74000000    10.63000000    55.42000000
   H      4.87000000    10.28000000    50.49000000
   H      3.80000000    12.36000000    54.06000000
   H      3.86000000    12.17000000    51.54000000
   N      8.93000000     8.53000000    52.61000000
   C      9.55000000     8.08000000    51.38000000
   C     10.55000000     6.93000000    51.44000000
   O     10.84000000     6.20000000    50.50000000
   C     10.11000000     9.28000000    50.61000000
   C      9.41000000    10.48000000    51.25000000
   C      9.25000000     9.95000000    52.67000000
   H      8.75000000     7.77000000    50.71000000
   H     11.13000000     9.54000000    50.90000000
   H      9.89000000     9.19000000    49.55000000
   H      9.96000000    11.39000000    50.97000000
   H      8.41000000    10.54000000    50.83000000
   H     10.21000000    10.01000000    53.17000000
   H      8.44000000    10.50000000    53.14000000
   N     11.03000000     6.64000000    52.64000000
   C     11.99000000     5.57000000    52.88000000
   C     11.34000000     4.20000000    52.83000000
   O     11.91000000     3.28000000    52.24000000
   C     12.60000000     5.72000000    54.27000000
   C     13.55000000     6.91000000    54.37000000
   C     14.09000000     7.12000000    55.78000000
   O     15.13000000     7.75000000    56.04000000
   O     13.40000000     6.77000000    56.76000000
   H     10.81000000     7.24000000    53.42000000
   H     12.80000000     5.71000000    52.17000000
   H     13.22000000     4.87000000    54.57000000
   H     11.74000000     5.73000000    54.95000000
   H     13.00000000     7.82000000    54.16000000
   H     14.39000000     6.78000000    53.69000000
   N     10.10000000     4.08000000    53.30000000
   C      9.41000000     2.85000000    52.99000000
   H      8.46700000     3.07800000    52.49300000
   H     10.02900000     2.24100000    52.33100000
   H      9.21100000     2.30200000    53.91100000
   H      9.63000000     4.82000000    53.81000000
  Ca     14.25000000     7.92000000    58.94000000
   O     14.67000000     7.10000000    61.44000000
   H     14.39000000     6.19000000    61.29000000
   H     13.96000000     7.48000000    61.97000000
   O     16.54000000     9.27000000    59.19000000
   H     17.43000000     8.95000000    59.32000000
   H     16.61000000    10.22000000    59.26000000
   O     13.41000000     9.91000000    57.39000000
   H     13.52000000    10.85000000    57.55000000
   H     13.00000000     9.87000000    56.52000000

Ca 1.00



