%chk=loop2.apoCaM-CA-Ng.Init31.run21.water4.chk
%nprocshared=20
%mem=10GB
%nosave
#b3lyp/svp scf=(tight,noincore,xqc) Test 
#IOP(5/87=12) Density=Current Pop=(MK,readradii) iop(6/33=2) iop(6/42=6)

loop2.apoCaM-CA-Ng.Init31.run21.water4 

   -2  1 
   C     91.50000000    45.55000000   -16.54000000
   C     90.14000000    45.68000000   -15.87000000
   O     90.07000000    45.94000000   -14.67000000
   H     92.24800000    45.28400000   -15.79300000
   H     91.45700000    44.77300000   -17.30300000
   H     91.77000000    46.50000000   -17.00200000
   N     89.01000000    45.52000000   -16.55000000
   C     88.67000000    45.28000000   -17.94000000
   C     87.73000000    44.08000000   -18.03000000
   O     86.62000000    44.13000000   -17.51000000
   C     88.01000000    46.49000000   -18.60000000
   C     87.16000000    47.41000000   -17.73000000
   O     87.31000000    48.64000000   -17.89000000
   O     86.31000000    46.92000000   -16.96000000
   H     88.14000000    45.53000000   -16.04000000
   H     89.60000000    45.08000000   -18.47000000
   H     87.42000000    46.10000000   -19.43000000
   H     88.84000000    47.01000000   -19.08000000
   N     88.16000000    43.00000000   -18.69000000
   C     87.51000000    41.71000000   -18.83000000
   C     86.10000000    41.60000000   -19.39000000
   O     85.93000000    41.14000000   -20.52000000
   C     87.67000000    40.96000000   -17.51000000
   H     88.79000000    43.14000000   -19.47000000
   H     88.17000000    41.23000000   -19.56000000
   H     87.34000000    39.94000000   -17.74000000
   H     88.73000000    40.84000000   -17.27000000
   H     87.06000000    41.30000000   -16.67000000
   N     85.04000000    42.07000000   -18.72000000
   C     83.61000000    42.01000000   -18.95000000
   C     83.20000000    43.36000000   -19.53000000
   O     83.40000000    44.29000000   -18.76000000
   C     82.68000000    41.56000000   -17.83000000
   C     82.99000000    41.99000000   -16.40000000
   O     83.78000000    42.93000000   -16.17000000
   O     82.25000000    41.61000000   -15.47000000
   H     85.27000000    42.52000000   -17.85000000
   H     83.51000000    41.21000000   -19.69000000
   H     82.69000000    40.47000000   -17.78000000
   H     81.66000000    41.81000000   -18.13000000
   N     82.66000000    43.48000000   -20.74000000
   C     82.20000000    44.72000000   -21.33000000
   C     80.91000000    45.16000000   -20.64000000
   O     79.83000000    44.91000000   -21.17000000
   H     82.69000000    42.63000000   -21.29000000
   H     81.98000000    44.53000000   -22.38000000
   H     82.96000000    45.49000000   -21.20000000
   N     81.01000000    45.85000000   -19.51000000
   C     79.91000000    46.44000000   -18.77000000
   C     80.11000000    47.83000000   -18.20000000
   O     79.12000000    48.56000000   -18.18000000
   C     79.54000000    45.46000000   -17.66000000
   C     80.65000000    45.11000000   -16.67000000
   N     80.22000000    44.34000000   -15.67000000
   O     81.83000000    45.44000000   -16.74000000
   H     81.95000000    45.89000000   -19.13000000
   H     79.04000000    46.55000000   -19.42000000
   H     79.17000000    44.55000000   -18.12000000
   H     78.68000000    45.88000000   -17.15000000
   H     79.24000000    44.11000000   -15.55000000
   H     80.85000000    44.29000000   -14.88000000
   N     81.37000000    48.23000000   -17.98000000
   C     81.82000000    49.50000000   -17.45000000
   C     81.51000000    49.55000000   -15.96000000
   O     81.18000000    48.60000000   -15.26000000
   H     82.08000000    47.53000000   -18.11000000
   H     81.23000000    50.28000000   -17.93000000
   H     82.87000000    49.71000000   -17.67000000
   N     81.66000000    50.70000000   -15.29000000
   C     82.03000000    52.00000000   -15.80000000
   C     83.37000000    52.60000000   -15.38000000
   O     83.82000000    53.57000000   -15.98000000
   C     80.87000000    52.93000000   -15.47000000
   C     79.65000000    52.63000000   -16.34000000
   O     80.47000000    52.90000000   -14.12000000
   H     81.53000000    50.63000000   -14.29000000
   H     82.11000000    52.07000000   -16.88000000
   H     81.16000000    53.96000000   -15.67000000
   H     80.16000000    53.77000000   -13.86000000
   H     79.19000000    51.71000000   -15.96000000
   H     78.87000000    53.37000000   -16.18000000
   H     79.90000000    52.55000000   -17.39000000
   N     83.91000000    52.14000000   -14.25000000
   C     84.67000000    52.99000000   -13.35000000
   C     83.84000000    54.17000000   -12.87000000
   O     83.99000000    55.27000000   -13.38000000
   C     86.05000000    53.46000000   -13.82000000
   C     86.78000000    52.40000000   -14.64000000
   C     86.90000000    53.99000000   -12.67000000
   C     88.27000000    52.66000000   -14.81000000
   H     83.51000000    51.29000000   -13.89000000
   H     84.77000000    52.32000000   -12.51000000
   H     85.92000000    54.30000000   -14.50000000
   H     86.24000000    52.32000000   -15.59000000
   H     86.72000000    51.38000000   -14.24000000
   H     86.37000000    54.67000000   -12.01000000
   H     87.25000000    53.18000000   -12.03000000
   H     87.74000000    54.56000000   -13.07000000
   H     88.46000000    53.70000000   -15.04000000
   H     88.89000000    52.41000000   -13.95000000
   H     88.57000000    52.12000000   -15.72000000
   N     83.07000000    54.04000000   -11.78000000
   C     82.71000000    52.86000000   -11.03000000
   C     83.82000000    52.31000000   -10.15000000
   O     84.28000000    51.20000000   -10.40000000
   C     81.41000000    53.19000000   -10.29000000
   C     81.19000000    54.56000000    -9.68000000
   O     80.02000000    55.01000000    -9.56000000
   O     82.18000000    55.24000000    -9.33000000
   H     82.69000000    54.90000000   -11.41000000
   H     82.44000000    52.14000000   -11.80000000
   H     81.27000000    52.41000000    -9.53000000
   H     80.72000000    53.06000000   -11.12000000
   N     84.19000000    53.07000000    -9.11000000
   C     85.13000000    52.63000000    -8.10000000
   C     84.49000000    52.78000000    -6.72000000
   O     83.72000000    53.71000000    -6.52000000
   C     86.42000000    53.41000000    -8.27000000
   C     86.52000000    54.78000000    -7.65000000
   C     86.03000000    55.84000000    -8.43000000
   C     87.22000000    54.99000000    -6.45000000
   C     86.11000000    57.14000000    -7.91000000
   C     87.41000000    56.32000000    -6.06000000
   C     86.74000000    57.38000000    -6.68000000
   H     83.78000000    53.98000000    -8.99000000
   H     85.30000000    51.56000000    -8.23000000
   H     86.69000000    53.56000000    -9.32000000
   H     87.22000000    52.87000000    -7.76000000
   H     85.65000000    55.75000000    -9.43000000
   H     87.72000000    54.23000000    -5.87000000
   H     85.76000000    58.07000000    -8.32000000
   H     88.01000000    56.54000000    -5.19000000
   H     86.82000000    58.40000000    -6.34000000
   N     84.84000000    51.92000000    -5.76000000
   C     85.98000000    51.02000000    -5.80000000
   C     86.02000000    49.84000000    -6.75000000
   O     85.03000000    49.43000000    -7.37000000
   C     86.13000000    50.42000000    -4.41000000
   C     85.52000000    51.47000000    -3.49000000
   C     84.42000000    52.04000000    -4.38000000
   H     86.92000000    51.56000000    -5.94000000
   H     85.59000000    49.48000000    -4.33000000
   H     87.20000000    50.34000000    -4.24000000
   H     85.22000000    51.07000000    -2.52000000
   H     86.17000000    52.34000000    -3.34000000
   H     83.47000000    51.51000000    -4.33000000
   H     84.34000000    53.06000000    -4.00000000
   N     87.21000000    49.25000000    -6.89000000
   C     87.48000000    47.99000000    -7.55000000
   C     88.75000000    48.06000000    -8.40000000
   O     89.27000000    46.96000000    -8.55000000
   C     87.46000000    46.94000000    -6.45000000
   C     88.24000000    47.09000000    -5.14000000
   C     89.64000000    47.68000000    -5.15000000
   O     90.68000000    47.02000000    -4.99000000
   O     89.72000000    48.92000000    -5.26000000
   H     88.02000000    49.64000000    -6.43000000
   H     86.67000000    47.74000000    -8.23000000
   H     87.54000000    45.95000000    -6.90000000
   H     86.42000000    46.83000000    -6.16000000
   H     88.33000000    46.14000000    -4.62000000
   H     87.66000000    47.73000000    -4.48000000
   N     89.30000000    49.12000000    -9.00000000
   C     88.96000000    50.52000000    -8.91000000
   H     88.00200000    50.62900000    -8.40200000
   H     89.73100000    51.04600000    -8.34700000
   H     88.88900000    50.94200000    -9.91200000
   H     90.14000000    48.94000000    -9.53000000
  Ca     84.44000000    45.33000000   -16.39200000
   O     86.22000000    44.93000000   -14.33200000
   H     86.30000000    43.98000000   -14.28200000
   H     86.61000000    45.24000000   -13.51200000
   O     84.01000000    47.15000000   -18.57200000
   H     84.40000000    46.92000000   -19.42200000
   H     84.44000000    47.97000000   -18.32200000
   O     82.86000000    45.20000000   -13.66200000
   H     82.56000000    45.77000000   -12.96200000
   H     82.31000000    44.42000000   -13.58200000
   O     83.92000000    47.63000000   -15.07200000
   H     84.35000000    48.44000000   -14.78200000
   H     82.99000000    47.80000000   -14.94200000

Ca 1.00



