%chk=loop3.apoCaM-CA-Ng.Init31.run94.water5.chk
%nprocshared=20
%mem=10GB
%nosave
#b3lyp/svp scf=(tight,noincore,xqc) Test 
#IOP(5/87=12) Density=Current Pop=(MK,readradii) iop(6/33=2) iop(6/42=6)

loop3.apoCaM-CA-Ng.Init31.run94.water5 

   0  1 
   C     49.85000000    62.39000000    30.06000000
   C     48.88000000    61.23000000    30.28000000
   O     48.86000000    60.55000000    31.30000000
   H     50.77600000    62.01100000    29.62800000
   H     49.40200000    63.11500000    29.38000000
   H     50.06500000    62.87100000    31.01400000
   N     48.03000000    60.99000000    29.27000000
   C     47.06000000    59.93000000    29.09000000
   C     47.71000000    58.62000000    28.67000000
   O     48.69000000    58.58000000    27.93000000
   C     46.01000000    60.37000000    28.08000000
   C     46.57000000    60.74000000    26.72000000
   O     46.35000000    59.95000000    25.77000000
   O     47.26000000    61.77000000    26.60000000
   H     48.08000000    61.61000000    28.48000000
   H     46.56000000    59.78000000    30.05000000
   H     45.61000000    61.28000000    28.52000000
   H     45.26000000    59.57000000    28.11000000
   N     47.02000000    57.50000000    28.92000000
   C     47.51000000    56.19000000    28.55000000
   C     48.72000000    55.90000000    29.44000000
   O     49.72000000    55.49000000    28.86000000
   C     46.40000000    55.14000000    28.59000000
   C     47.01000000    53.89000000    27.97000000
   C     45.85000000    52.93000000    27.70000000
   C     46.27000000    51.77000000    26.80000000
   N     45.07000000    50.96000000    26.53000000
   H     46.18000000    57.51000000    29.47000000
   H     47.92000000    56.25000000    27.55000000
   H     45.57000000    55.57000000    28.02000000
   H     45.98000000    55.00000000    29.58000000
   H     47.71000000    53.44000000    28.68000000
   H     47.53000000    54.14000000    27.05000000
   H     45.16000000    53.49000000    27.07000000
   H     45.40000000    52.54000000    28.61000000
   H     47.07000000    51.20000000    27.28000000
   H     46.59000000    52.11000000    25.82000000
   H     44.80000000    50.31000000    27.25000000
   H     44.23000000    51.51000000    26.46000000
   H     45.22000000    50.40000000    25.71000000
   N     48.67000000    56.01000000    30.77000000
   C     49.77000000    55.75000000    31.66000000
   C     50.08000000    54.26000000    31.82000000
   O     50.73000000    53.85000000    32.78000000
   C     49.63000000    56.51000000    32.98000000
   C     48.25000000    56.74000000    33.58000000
   O     48.17000000    57.45000000    34.61000000
   O     47.33000000    55.97000000    33.23000000
   H     47.80000000    56.32000000    31.17000000
   H     50.64000000    56.21000000    31.20000000
   H     50.05000000    57.51000000    32.90000000
   H     50.29000000    56.00000000    33.68000000
   N     49.64000000    53.42000000    30.89000000
   C     49.91000000    52.00000000    30.98000000
   C     48.82000000    51.14000000    31.60000000
   O     47.84000000    51.63000000    32.16000000
   H     49.11000000    53.80000000    30.11000000
   H     50.77000000    51.75000000    31.60000000
   H     50.17000000    51.54000000    30.03000000
   N     48.90000000    49.80000000    31.63000000
   C     49.90000000    48.92000000    31.06000000
   C     50.24000000    47.80000000    32.03000000
   O     49.30000000    47.39000000    32.71000000
   C     49.32000000    48.41000000    29.74000000
   C     50.03000000    47.15000000    29.26000000
   N     49.56000000    45.98000000    29.68000000
   O     50.96000000    47.19000000    28.44000000
   H     48.25000000    49.34000000    32.25000000
   H     50.80000000    49.49000000    30.84000000
   H     49.28000000    49.25000000    29.05000000
   H     48.25000000    48.26000000    29.86000000
   H     48.65000000    45.97000000    30.13000000
   H     49.88000000    45.17000000    29.18000000
   N     51.49000000    47.37000000    32.16000000
   C     52.70000000    47.86000000    31.52000000
   C     53.43000000    49.06000000    32.10000000
   O     53.68000000    49.98000000    31.32000000
   H     51.60000000    46.75000000    32.96000000
   H     52.52000000    48.04000000    30.46000000
   H     53.36000000    47.01000000    31.65000000
   N     53.72000000    49.06000000    33.41000000
   C     54.55000000    50.05000000    34.06000000
   C     56.04000000    49.94000000    33.78000000
   O     56.83000000    49.69000000    34.69000000
   C     54.20000000    50.13000000    35.55000000
   C     52.71000000    50.24000000    35.77000000
   C     51.90000000    51.08000000    35.01000000
   C     52.13000000    49.45000000    36.76000000
   C     50.51000000    51.03000000    35.17000000
   C     50.74000000    49.31000000    36.88000000
   C     49.92000000    50.09000000    36.04000000
   O     48.56000000    49.94000000    36.00000000
   H     53.41000000    48.26000000    33.94000000
   H     54.25000000    51.05000000    33.76000000
   H     54.76000000    50.93000000    36.03000000
   H     54.59000000    49.29000000    36.13000000
   H     52.29000000    51.71000000    34.22000000
   H     52.73000000    48.77000000    37.36000000
   H     49.88000000    51.64000000    34.54000000
   H     50.27000000    48.71000000    37.64000000
   H     48.30000000    49.05000000    36.27000000
   N     56.50000000    49.90000000    32.53000000
   C     57.75000000    49.32000000    32.08000000
   C     58.75000000    50.33000000    31.54000000
   O     59.78000000    49.88000000    31.05000000
   C     57.52000000    48.10000000    31.20000000
   C     56.73000000    46.92000000    31.77000000
   C     56.74000000    48.43000000    29.93000000
   C     57.43000000    46.35000000    33.00000000
   H     55.94000000    50.15000000    31.73000000
   H     58.19000000    48.96000000    33.02000000
   H     58.43000000    47.66000000    30.80000000
   H     56.70000000    46.17000000    30.98000000
   H     55.73000000    47.27000000    32.01000000
   H     55.68000000    48.62000000    30.06000000
   H     57.15000000    49.29000000    29.41000000
   H     56.90000000    47.62000000    29.22000000
   H     58.46000000    46.01000000    32.89000000
   H     57.53000000    47.11000000    33.78000000
   H     56.85000000    45.54000000    33.44000000
   N     58.52000000    51.63000000    31.71000000
   C     59.42000000    52.67000000    31.23000000
   C     59.06000000    53.41000000    29.95000000
   O     59.86000000    54.11000000    29.34000000
   C     59.81000000    53.63000000    32.35000000
   O     58.81000000    54.55000000    32.69000000
   H     57.77000000    51.97000000    32.29000000
   H     60.34000000    52.17000000    30.93000000
   H     60.73000000    54.12000000    32.03000000
   H     60.07000000    53.12000000    33.28000000
   H     58.08000000    53.99000000    32.95000000
   N     57.75000000    53.51000000    29.69000000
   C     57.12000000    54.35000000    28.69000000
   C     56.81000000    55.73000000    29.27000000
   O     55.73000000    56.32000000    29.20000000
   C     55.90000000    53.69000000    28.05000000
   H     57.09000000    53.17000000    30.37000000
   H     57.76000000    54.42000000    27.81000000
   H     55.76000000    54.02000000    27.03000000
   H     55.95000000    52.60000000    28.12000000
   H     55.04000000    54.05000000    28.61000000
   N     57.79000000    56.31000000    29.95000000
   C     57.71000000    57.53000000    30.74000000
   C     56.64000000    57.49000000    31.82000000
   O     56.43000000    58.47000000    32.53000000
   C     57.62000000    58.76000000    29.84000000
   H     58.66000000    55.82000000    29.82000000
   H     58.73000000    57.59000000    31.13000000
   H     57.51000000    59.63000000    30.49000000
   H     58.49000000    58.75000000    29.20000000
   H     56.77000000    58.70000000    29.16000000
   N     55.95000000    56.38000000    32.10000000
   C     54.91000000    56.37000000    33.11000000
   C     55.38000000    56.51000000    34.55000000
   O     54.75000000    57.16000000    35.38000000
   C     53.93000000    55.22000000    32.86000000
   C     54.33000000    53.83000000    33.34000000
   C     55.57000000    53.33000000    32.60000000
   O     56.66000000    53.33000000    33.20000000
   O     55.52000000    53.08000000    31.38000000
   H     55.97000000    55.66000000    31.39000000
   H     54.36000000    57.31000000    33.15000000
   H     53.60000000    55.18000000    31.83000000
   H     52.99000000    55.52000000    33.31000000
   H     53.52000000    53.16000000    33.07000000
   H     54.38000000    53.79000000    34.43000000
   N     56.51000000    55.93000000    34.96000000
   C     57.06000000    56.00000000    36.30000000
   H     57.94600000    56.63500000    36.29600000
   H     56.31600000    56.42000000    36.97700000
   H     57.33200000    54.99900000    36.63400000
   H     56.79000000    55.17000000    34.36000000
  Ca     45.80000000    56.64000000    35.40000000
   O     46.73000000    54.03000000    35.36000000
   H     46.25000000    53.21000000    35.28000000
   H     47.37000000    54.00000000    34.65000000
   O     43.79000000    55.33000000    34.27000000
   H     43.07000000    55.37000000    33.64000000
   H     43.82000000    54.41000000    34.54000000
   O     44.48000000    55.54000000    37.58000000
   H     44.91000000    55.68000000    38.42000000
   H     43.73000000    54.97000000    37.79000000
   O     45.22000000    58.45000000    33.10000000
   H     45.21000000    58.18000000    32.19000000
   H     44.96000000    59.38000000    33.08000000
   O     47.30000000    56.25000000    37.65000000
   H     48.08000000    56.74000000    37.92000000
   H     46.81000000    56.10000000    38.46000000

Ca 1.00



