%chk=loop3.holoCaM-CaMKII.run59.water1.chk
%nprocshared=20
%mem=10GB
%nosave
#b3lyp/svp scf=(tight,noincore,xqc) Test 
#IOP(5/87=12) Density=Current Pop=(MK,readradii) iop(6/33=2) iop(6/42=6)

loop3.holoCaM-CaMKII.run59.water1 

   0  1 
   C     23.90000000    54.39000000    19.13000000
   C     25.16000000    54.35000000    18.28000000
   O     25.19000000    54.85000000    17.16000000
   H     23.07300000    53.94900000    18.57400000
   H     24.06200000    53.82500000    20.04800000
   H     23.66000000    55.42400000    19.37700000
   N     26.15000000    53.58000000    18.73000000
   C     27.26000000    53.18000000    17.88000000
   C     26.66000000    52.15000000    16.92000000
   O     26.23000000    51.11000000    17.40000000
   C     28.41000000    52.72000000    18.77000000
   C     29.68000000    52.40000000    17.98000000
   O     29.65000000    52.38000000    16.73000000
   O     30.74000000    52.19000000    18.59000000
   H     26.12000000    53.18000000    19.66000000
   H     27.70000000    54.06000000    17.43000000
   H     28.21000000    51.86000000    19.41000000
   H     28.72000000    53.46000000    19.50000000
   N     26.70000000    52.40000000    15.61000000
   C     25.98000000    51.54000000    14.70000000
   C     26.73000000    50.24000000    14.41000000
   O     26.09000000    49.36000000    13.85000000
   C     25.89000000    52.32000000    13.40000000
   C     25.17000000    51.70000000    12.21000000
   C     24.91000000    52.54000000    10.96000000
   C     26.15000000    53.21000000    10.39000000
   N     25.84000000    53.82000000     9.08000000
   H     27.28000000    53.15000000    15.27000000
   H     24.95000000    51.41000000    15.04000000
   H     26.92000000    52.58000000    13.12000000
   H     25.38000000    53.25000000    13.66000000
   H     24.17000000    51.45000000    12.57000000
   H     25.69000000    50.82000000    11.83000000
   H     24.19000000    53.31000000    11.23000000
   H     24.48000000    51.97000000    10.14000000
   H     26.82000000    52.37000000    10.21000000
   H     26.57000000    53.92000000    11.10000000
   H     25.23000000    53.28000000     8.49000000
   H     25.46000000    54.75000000     9.22000000
   H     26.75000000    53.98000000     8.68000000
   N     28.02000000    50.16000000    14.72000000
   C     28.85000000    49.05000000    14.29000000
   C     29.67000000    48.43000000    15.41000000
   O     30.06000000    47.27000000    15.31000000
   C     29.78000000    49.54000000    13.19000000
   C     30.37000000    50.90000000    13.52000000
   O     31.15000000    51.08000000    14.49000000
   O     29.89000000    51.96000000    13.08000000
   H     28.49000000    50.95000000    15.15000000
   H     28.21000000    48.26000000    13.91000000
   H     29.20000000    49.64000000    12.26000000
   H     30.50000000    48.74000000    13.01000000
   N     29.78000000    49.20000000    16.50000000
   C     30.48000000    48.93000000    17.75000000
   C     31.98000000    49.18000000    17.76000000
   O     32.55000000    48.69000000    18.72000000
   H     29.55000000    50.17000000    16.34000000
   H     30.24000000    47.94000000    18.13000000
   H     29.96000000    49.62000000    18.41000000
   N     32.57000000    49.95000000    16.84000000
   C     33.98000000    50.29000000    16.87000000
   C     34.55000000    51.14000000    17.99000000
   O     35.75000000    51.12000000    18.28000000
   C     34.28000000    50.84000000    15.48000000
   C     34.35000000    52.36000000    15.46000000
   N     35.47000000    52.96000000    15.04000000
   O     33.36000000    53.01000000    15.79000000
   H     32.09000000    50.63000000    16.27000000
   H     34.44000000    49.32000000    17.04000000
   H     33.55000000    50.45000000    14.77000000
   H     35.17000000    50.31000000    15.15000000
   H     36.24000000    52.44000000    14.66000000
   H     35.43000000    53.97000000    15.09000000
   N     33.67000000    51.87000000    18.68000000
   C     34.11000000    52.73000000    19.75000000
   C     33.71000000    54.20000000    19.69000000
   O     33.89000000    55.00000000    20.61000000
   H     32.67000000    51.85000000    18.50000000
   H     35.17000000    52.63000000    19.98000000
   H     33.55000000    52.48000000    20.65000000
   N     33.02000000    54.69000000    18.66000000
   C     32.50000000    56.04000000    18.57000000
   C     31.19000000    56.12000000    17.79000000
   O     30.91000000    55.24000000    16.99000000
   C     33.57000000    56.96000000    17.99000000
   C     34.07000000    56.81000000    16.57000000
   C     35.34000000    56.28000000    16.31000000
   C     33.25000000    57.23000000    15.52000000
   C     35.75000000    56.06000000    14.99000000
   C     33.69000000    57.05000000    14.20000000
   C     34.94000000    56.48000000    13.91000000
   O     35.41000000    56.39000000    12.63000000
   H     32.94000000    54.06000000    17.87000000
   H     32.29000000    56.37000000    19.58000000
   H     34.44000000    56.92000000    18.64000000
   H     33.28000000    57.99000000    18.18000000
   H     35.96000000    55.96000000    17.13000000
   H     32.32000000    57.73000000    15.77000000
   H     36.67000000    55.53000000    14.82000000
   H     33.13000000    57.40000000    13.34000000
   H     36.31000000    56.05000000    12.61000000
   N     30.50000000    57.26000000    17.90000000
   C     29.26000000    57.60000000    17.22000000
   C     29.53000000    58.84000000    16.38000000
   O     30.25000000    59.75000000    16.78000000
   C     28.24000000    57.98000000    18.29000000
   C     27.94000000    56.82000000    19.24000000
   C     26.92000000    58.30000000    17.60000000
   C     27.36000000    57.21000000    20.60000000
   H     30.92000000    57.99000000    18.46000000
   H     28.98000000    56.75000000    16.62000000
   H     28.60000000    58.89000000    18.77000000
   H     28.82000000    56.19000000    19.32000000
   H     27.27000000    56.11000000    18.76000000
   H     26.18000000    58.50000000    18.38000000
   H     26.97000000    59.18000000    16.95000000
   H     26.68000000    57.41000000    17.01000000
   H     26.71000000    56.38000000    20.88000000
   H     28.22000000    57.16000000    21.26000000
   H     26.87000000    58.18000000    20.67000000
   N     28.95000000    58.91000000    15.18000000
   C     28.90000000    60.06000000    14.30000000
   C     27.51000000    60.61000000    14.03000000
   O     26.55000000    60.00000000    14.49000000
   C     29.61000000    59.71000000    12.99000000
   O     28.75000000    59.02000000    12.11000000
   H     28.39000000    58.10000000    14.97000000
   H     29.43000000    60.91000000    14.73000000
   H     30.57000000    59.20000000    13.13000000
   H     29.89000000    60.59000000    12.42000000
   H     29.05000000    59.23000000    11.23000000
   N     27.38000000    61.75000000    13.34000000
   C     26.07000000    62.29000000    13.07000000
   C     25.26000000    61.41000000    12.13000000
   O     24.04000000    61.38000000    12.22000000
   C     26.05000000    63.72000000    12.54000000
   H     28.20000000    62.27000000    13.06000000
   H     25.55000000    62.34000000    14.03000000
   H     26.31000000    63.80000000    11.49000000
   H     24.99000000    64.00000000    12.49000000
   H     26.60000000    64.42000000    13.18000000
   N     25.94000000    60.66000000    11.27000000
   C     25.29000000    59.62000000    10.50000000
   C     24.75000000    58.47000000    11.34000000
   O     23.59000000    58.06000000    11.22000000
   C     26.29000000    59.22000000     9.42000000
   H     26.95000000    60.60000000    11.33000000
   H     24.46000000    60.08000000     9.96000000
   H     25.87000000    58.34000000     8.94000000
   H     26.32000000    59.97000000     8.63000000
   H     27.26000000    58.96000000     9.83000000
   N     25.55000000    58.01000000    12.30000000
   C     25.17000000    57.01000000    13.27000000
   C     24.00000000    57.47000000    14.13000000
   O     23.22000000    56.65000000    14.60000000
   C     26.31000000    56.48000000    14.14000000
   C     27.40000000    56.04000000    13.17000000
   C     28.56000000    55.37000000    13.90000000
   O     29.74000000    55.72000000    13.69000000
   O     28.40000000    54.32000000    14.57000000
   H     26.53000000    58.26000000    12.30000000
   H     24.89000000    56.14000000    12.66000000
   H     26.02000000    55.61000000    14.73000000
   H     26.69000000    57.23000000    14.83000000
   H     27.78000000    56.88000000    12.59000000
   H     26.94000000    55.32000000    12.49000000
   N     23.97000000    58.78000000    14.37000000
   C     22.88000000    59.33000000    15.15000000
   H     21.99400000    58.70800000    15.02300000
   H     23.16100000    59.35100000    16.20300000
   H     22.66400000    60.34300000    14.81000000
   H     24.79000000    59.33000000    14.15000000
  Ca     30.75000000    53.59000000    14.87000000
   O     32.45000000    54.49000000    12.88000000
   H     32.15000000    55.39000000    12.73000000
   H     32.97000000    54.28000000    12.10000000

Ca 1.00



