%chk=loop4.holoCaM.run45.water2.chk
%nprocshared=20
%mem=10GB
%nosave
#b3lyp/svp scf=(tight,noincore,xqc) Test 
#IOP(5/87=12) Density=Current Pop=(MK,readradii) iop(6/33=2) iop(6/42=6)

loop4.holoCaM.run45.water2 

   -3  1 
   C     86.08000000    46.62000000    35.58000000
   C     86.57000000    47.91000000    34.94000000
   O     86.63000000    47.99000000    33.71000000
   H     85.08800000    46.37900000    35.19700000
   H     86.76900000    45.81000000    35.34000000
   H     86.03000000    46.74600000    36.66200000
   N     86.90000000    49.03000000    35.59000000
   C     87.25000000    50.34000000    35.09000000
   C     88.72000000    50.31000000    34.67000000
   O     89.59000000    50.11000000    35.51000000
   C     87.02000000    51.41000000    36.15000000
   C     87.41000000    52.84000000    35.80000000
   O     87.81000000    53.66000000    36.65000000
   O     87.22000000    53.20000000    34.61000000
   H     86.93000000    48.93000000    36.60000000
   H     86.64000000    50.58000000    34.22000000
   H     87.55000000    51.19000000    37.08000000
   H     85.95000000    51.31000000    36.33000000
   N     88.98000000    50.54000000    33.39000000
   C     90.30000000    50.56000000    32.79000000
   C     90.88000000    51.95000000    32.53000000
   O     91.95000000    51.94000000    31.92000000
   C     90.28000000    49.75000000    31.50000000
   C     89.36000000    50.34000000    30.43000000
   C     89.96000000    48.32000000    31.92000000
   C     89.57000000    49.72000000    29.06000000
   H     88.22000000    50.68000000    32.73000000
   H     91.08000000    50.09000000    33.39000000
   H     91.33000000    49.78000000    31.20000000
   H     89.49000000    51.42000000    30.38000000
   H     88.34000000    50.06000000    30.68000000
   H     90.13000000    47.72000000    31.02000000
   H     90.54000000    47.92000000    32.76000000
   H     88.90000000    48.21000000    32.14000000
   H     89.10000000    50.29000000    28.25000000
   H     90.62000000    49.64000000    28.80000000
   H     89.11000000    48.73000000    29.08000000
   N     90.08000000    52.99000000    32.78000000
   C     90.48000000    54.38000000    32.62000000
   C     90.68000000    55.06000000    33.96000000
   O     91.53000000    55.95000000    34.03000000
   C     89.51000000    55.15000000    31.72000000
   C     88.03000000    55.02000000    32.00000000
   O     87.19000000    54.24000000    31.51000000
   O     87.50000000    55.83000000    32.81000000
   H     89.20000000    52.78000000    33.21000000
   H     91.45000000    54.47000000    32.14000000
   H     89.62000000    54.78000000    30.69000000
   H     89.76000000    56.21000000    31.79000000
   N     90.00000000    54.65000000    35.03000000
   C     90.36000000    55.16000000    36.34000000
   C     89.72000000    56.48000000    36.74000000
   O     90.32000000    57.51000000    37.05000000
   H     89.24000000    53.99000000    34.99000000
   H     91.45000000    55.24000000    36.32000000
   H     90.11000000    54.42000000    37.10000000
   N     88.39000000    56.40000000    36.80000000
   C     87.53000000    57.43000000    37.35000000
   C     86.37000000    56.95000000    38.21000000
   O     85.80000000    57.79000000    38.90000000
   C     86.89000000    58.33000000    36.29000000
   C     86.08000000    57.52000000    35.30000000
   O     85.72000000    58.13000000    34.27000000
   O     85.80000000    56.32000000    35.50000000
   H     87.96000000    55.55000000    36.47000000
   H     88.20000000    58.13000000    37.86000000
   H     87.60000000    58.98000000    35.78000000
   H     86.23000000    59.04000000    36.78000000
   N     86.05000000    55.66000000    38.06000000
   C     85.04000000    55.00000000    38.86000000
   C     83.62000000    55.37000000    38.47000000
   O     82.71000000    55.40000000    39.29000000
   H     86.66000000    55.07000000    37.51000000
   H     85.16000000    55.22000000    39.92000000
   H     85.18000000    53.92000000    38.78000000
   N     83.45000000    55.79000000    37.21000000
   C     82.14000000    55.93000000    36.60000000
   C     82.14000000    55.32000000    35.21000000
   O     83.16000000    55.30000000    34.52000000
   C     81.78000000    57.39000000    36.37000000
   C     81.99000000    58.21000000    37.64000000
   C     81.37000000    59.60000000    37.59000000
   N     81.95000000    60.54000000    36.84000000
   O     80.40000000    59.87000000    38.29000000
   H     84.26000000    55.83000000    36.61000000
   H     81.32000000    55.50000000    37.18000000
   H     80.74000000    57.58000000    36.12000000
   H     82.44000000    57.90000000    35.66000000
   H     83.05000000    58.40000000    37.82000000
   H     81.64000000    57.63000000    38.50000000
   H     82.81000000    60.31000000    36.36000000
   H     81.62000000    61.49000000    36.87000000
   N     80.94000000    54.96000000    34.73000000
   C     80.77000000    54.34000000    33.43000000
   C     80.29000000    55.39000000    32.44000000
   O     79.34000000    56.14000000    32.65000000
   C     79.85000000    53.12000000    33.50000000
   C     80.37000000    52.00000000    34.40000000
   C     78.40000000    53.29000000    33.95000000
   H     80.07000000    55.19000000    35.19000000
   H     81.70000000    53.95000000    33.03000000
   H     79.74000000    52.70000000    32.50000000
   H     80.98000000    52.37000000    35.22000000
   H     79.62000000    51.27000000    34.69000000
   H     81.04000000    51.44000000    33.74000000
   H     78.02000000    54.19000000    33.46000000
   H     77.78000000    52.42000000    33.73000000
   H     78.42000000    53.42000000    35.04000000
   N     81.03000000    55.56000000    31.34000000
   C     80.78000000    56.29000000    30.11000000
   C     79.94000000    55.41000000    29.20000000
   O     79.46000000    54.37000000    29.63000000
   C     82.13000000    56.72000000    29.54000000
   C     82.75000000    55.76000000    28.53000000
   N     83.48000000    54.76000000    29.01000000
   O     82.63000000    55.91000000    27.32000000
   H     81.95000000    55.16000000    31.35000000
   H     80.22000000    57.21000000    30.29000000
   H     82.86000000    56.87000000    30.33000000
   H     82.10000000    57.74000000    29.13000000
   H     83.51000000    54.63000000    30.01000000
   H     84.08000000    54.15000000    28.47000000
   N     79.68000000    55.92000000    27.99000000
   C     78.75000000    55.36000000    27.03000000
   C     79.24000000    54.07000000    26.39000000
   O     78.44000000    53.14000000    26.24000000
   C     78.48000000    56.46000000    26.00000000
   C     78.04000000    56.09000000    24.61000000
   C     76.69000000    55.76000000    24.46000000
   C     78.95000000    56.02000000    23.54000000
   C     76.30000000    55.36000000    23.18000000
   C     78.54000000    55.50000000    22.30000000
   C     77.20000000    55.12000000    22.12000000
   O     76.77000000    54.51000000    20.98000000
   H     80.01000000    56.86000000    27.83000000
   H     77.74000000    55.15000000    27.36000000
   H     79.40000000    57.01000000    25.79000000
   H     77.76000000    57.17000000    26.38000000
   H     76.01000000    55.77000000    25.30000000
   H     79.97000000    56.34000000    23.67000000
   H     75.27000000    55.07000000    23.00000000
   H     79.28000000    55.31000000    21.54000000
   H     77.47000000    54.18000000    20.42000000
   N     80.57000000    53.96000000    26.31000000
   C     81.26000000    52.75000000    25.90000000
   C     81.38000000    51.71000000    27.00000000
   O     81.81000000    50.59000000    26.75000000
   C     82.64000000    53.13000000    25.38000000
   C     82.54000000    53.50000000    23.90000000
   C     83.86000000    54.17000000    23.52000000
   O     84.87000000    53.45000000    23.44000000
   O     83.77000000    55.37000000    23.18000000
   H     81.11000000    54.70000000    26.72000000
   H     80.75000000    52.15000000    25.15000000
   H     83.36000000    52.32000000    25.50000000
   H     83.11000000    53.95000000    25.93000000
   H     81.69000000    54.13000000    23.64000000
   H     82.48000000    52.54000000    23.39000000
   N     80.98000000    52.07000000    28.23000000
   C     80.94000000    51.10000000    29.31000000
   C     79.50000000    50.68000000    29.56000000
   O     79.27000000    49.50000000    29.83000000
   C     81.60000000    51.73000000    30.53000000
   C     83.12000000    51.70000000    30.34000000
   C     83.76000000    52.52000000    31.45000000
   O     83.58000000    53.75000000    31.53000000
   O     84.48000000    52.06000000    32.37000000
   H     80.65000000    52.99000000    28.45000000
   H     81.48000000    50.19000000    29.05000000
   H     81.45000000    51.21000000    31.47000000
   H     81.23000000    52.75000000    30.54000000
   H     83.47000000    52.25000000    29.47000000
   H     83.43000000    50.66000000    30.27000000
   N     78.52000000    51.49000000    29.15000000
   C     77.16000000    51.03000000    28.99000000
   H     76.52600000    51.86700000    28.69500000
   H     77.12500000    50.25900000    28.22000000
   H     76.80200000    50.61800000    29.93400000
   H     78.79000000    52.45000000    28.99000000
  Ca     85.34000000    54.58000000    33.57000000
   O     84.64000000    56.96000000    32.34000000
   H     85.26000000    57.07000000    31.62000000
   H     84.87000000    57.66000000    32.95000000
   O     83.84000000    52.70000000    35.52000000
   H     83.65000000    51.85000000    35.13000000
   H     83.47000000    52.64000000    36.40000000

Ca 1.00



