%chk=loop3.holoCaM.run33.water3.chk
%nprocshared=20
%mem=10GB
%nosave
#b3lyp/svp scf=(tight,noincore,xqc) Test 
#IOP(5/87=12) Density=Current Pop=(MK,readradii) iop(6/33=2) iop(6/42=6)

loop3.holoCaM.run33.water3 

   0  1 
   C     89.07000000    55.24000000     4.38700000
   C     90.38000000    55.99000000     4.14700000
   O     91.37000000    55.39000000     3.73700000
   H     88.29200000    55.65400000     3.74500000
   H     89.20800000    54.18400000     4.15500000
   H     88.77500000    55.34800000     5.43100000
   N     90.37000000    57.32000000     4.24700000
   C     91.55000000    58.14000000     4.05700000
   C     92.52000000    58.08000000     5.22700000
   O     92.20000000    58.54000000     6.32700000
   C     91.12000000    59.58000000     3.75700000
   C     92.17000000    60.46000000     3.10700000
   O     93.37000000    60.09000000     3.04700000
   O     91.84000000    61.57000000     2.64700000
   H     89.50000000    57.69000000     4.60700000
   H     92.06000000    57.77000000     3.16700000
   H     90.76000000    60.04000000     4.67700000
   H     90.27000000    59.48000000     3.09700000
   N     93.74000000    57.57000000     5.01700000
   C     94.58000000    57.33000000     6.17700000
   C     95.31000000    58.53000000     6.74700000
   O     95.76000000    58.47000000     7.88700000
   C     95.58000000    56.23000000     5.82700000
   C     94.96000000    54.84000000     5.67700000
   C     94.12000000    54.16000000     6.74700000
   C     94.80000000    53.92000000     8.09700000
   N     93.89000000    53.27000000     9.05700000
   H     94.11000000    57.26000000     4.13700000
   H     93.95000000    56.92000000     6.96700000
   H     96.20000000    56.14000000     6.71700000
   H     96.23000000    56.45000000     4.98700000
   H     95.89000000    54.30000000     5.51700000
   H     94.30000000    54.79000000     4.80700000
   H     93.82000000    53.20000000     6.32700000
   H     93.20000000    54.74000000     6.86700000
   H     95.05000000    54.90000000     8.48700000
   H     95.72000000    53.35000000     7.96700000
   H     93.03000000    52.91000000     8.66700000
   H     94.30000000    52.56000000     9.63700000
   H     93.56000000    53.88000000     9.78700000
   N     95.37000000    59.61000000     5.96700000
   C     96.06000000    60.82000000     6.35700000
   C     95.16000000    62.05000000     6.27700000
   O     95.54000000    63.13000000     6.70700000
   C     97.32000000    61.03000000     5.51700000
   C     97.14000000    61.14000000     4.00700000
   O     98.04000000    61.57000000     3.25700000
   O     96.06000000    60.86000000     3.44700000
   H     94.96000000    59.57000000     5.04700000
   H     96.34000000    60.84000000     7.40700000
   H     97.93000000    60.15000000     5.67700000
   H     97.93000000    61.88000000     5.81700000
   N     94.01000000    61.87000000     5.61700000
   C     92.98000000    62.89000000     5.56700000
   C     93.40000000    64.04000000     4.66700000
   O     93.04000000    65.18000000     4.93700000
   H     93.81000000    61.00000000     5.14700000
   H     92.81000000    63.21000000     6.59700000
   H     92.03000000    62.51000000     5.19700000
   N     94.09000000    63.71000000     3.57700000
   C     94.55000000    64.61000000     2.53700000
   C     93.53000000    64.88000000     1.44700000
   O     93.75000000    65.82000000     0.67700000
   C     95.78000000    64.08000000     1.80700000
   C     95.63000000    63.25000000     0.53700000
   N     96.21000000    63.67000000    -0.58300000
   O     94.88000000    62.27000000     0.54700000
   H     94.30000000    62.73000000     3.43700000
   H     94.80000000    65.57000000     2.99700000
   H     96.44000000    63.49000000     2.44700000
   H     96.43000000    64.94000000     1.61700000
   H     96.67000000    64.57000000    -0.62300000
   H     95.98000000    63.15000000    -1.41300000
   N     92.48000000    64.07000000     1.28700000
   C     91.35000000    64.30000000     0.40700000
   C     91.04000000    63.28000000    -0.67300000
   O     90.34000000    63.60000000    -1.63300000
   H     92.44000000    63.22000000     1.83700000
   H     91.42000000    65.29000000    -0.03300000
   H     90.54000000    64.30000000     1.13700000
   N     91.71000000    62.12000000    -0.64300000
   C     91.85000000    61.21000000    -1.75300000
   C     92.31000000    59.80000000    -1.40300000
   O     93.00000000    59.63000000    -0.39300000
   C     92.88000000    61.64000000    -2.80300000
   C     92.80000000    63.02000000    -3.42300000
   C     93.38000000    64.08000000    -2.73300000
   C     92.33000000    63.18000000    -4.73300000
   C     93.41000000    65.35000000    -3.31300000
   C     92.29000000    64.47000000    -5.28300000
   C     92.80000000    65.57000000    -4.56300000
   O     92.57000000    66.84000000    -4.99300000
   H     92.37000000    61.88000000     0.07700000
   H     90.91000000    61.22000000    -2.30300000
   H     92.83000000    60.97000000    -3.65300000
   H     93.86000000    61.63000000    -2.33300000
   H     93.90000000    63.92000000    -1.79300000
   H     92.01000000    62.31000000    -5.28300000
   H     93.96000000    66.16000000    -2.86300000
   H     91.89000000    64.61000000    -6.27300000
   H     92.11000000    66.80000000    -5.83300000
   N     92.07000000    58.80000000    -2.25300000
   C     92.46000000    57.42000000    -2.08300000
   C     93.43000000    56.98000000    -3.16300000
   O     93.12000000    56.96000000    -4.35300000
   C     91.25000000    56.49000000    -1.95300000
   C     90.43000000    56.82000000    -0.70300000
   C     91.53000000    55.00000000    -1.74300000
   C     90.91000000    56.68000000     0.73700000
   H     91.49000000    59.07000000    -3.04300000
   H     93.04000000    57.40000000    -1.17300000
   H     90.60000000    56.49000000    -2.82300000
   H     89.52000000    56.24000000    -0.79300000
   H     90.02000000    57.81000000    -0.90300000
   H     92.28000000    54.82000000    -0.97300000
   H     90.62000000    54.46000000    -1.51300000
   H     92.07000000    54.63000000    -2.61300000
   H     91.07000000    55.62000000     0.96700000
   H     91.80000000    57.30000000     0.83700000
   H     90.09000000    57.09000000     1.32700000
   N     94.62000000    56.52000000    -2.74300000
   C     95.54000000    55.65000000    -3.44300000
   C     95.15000000    54.18000000    -3.42300000
   O     94.33000000    53.74000000    -2.61300000
   C     96.88000000    55.68000000    -2.72300000
   O     96.90000000    55.22000000    -1.38300000
   H     94.78000000    56.70000000    -1.76300000
   H     95.55000000    56.06000000    -4.45300000
   H     97.18000000    56.73000000    -2.74300000
   H     97.62000000    55.14000000    -3.31300000
   H     96.29000000    55.74000000    -0.86300000
   N     95.82000000    53.45000000    -4.32300000
   C     95.70000000    52.01000000    -4.46300000
   C     96.06000000    51.26000000    -3.19300000
   O     95.39000000    50.28000000    -2.84300000
   C     96.61000000    51.62000000    -5.62300000
   H     96.49000000    53.92000000    -4.91300000
   H     94.69000000    51.75000000    -4.77300000
   H     97.63000000    51.96000000    -5.45300000
   H     96.56000000    50.53000000    -5.66300000
   H     96.15000000    51.95000000    -6.55300000
   N     97.09000000    51.72000000    -2.49300000
   C     97.41000000    51.11000000    -1.21300000
   C     96.27000000    51.25000000    -0.21300000
   O     95.85000000    50.31000000     0.45700000
   C     98.72000000    51.70000000    -0.71300000
   H     97.60000000    52.56000000    -2.73300000
   H     97.58000000    50.06000000    -1.43300000
   H     98.45000000    52.62000000    -0.19300000
   H     98.98000000    51.01000000     0.09700000
   H     99.52000000    51.86000000    -1.43300000
   N     95.68000000    52.43000000    -0.02300000
   C     94.45000000    52.63000000     0.72700000
   C     93.23000000    51.89000000     0.19700000
   O     92.37000000    51.46000000     0.96700000
   C     94.20000000    54.13000000     0.77700000
   C     95.20000000    54.95000000     1.58700000
   C     95.07000000    56.45000000     1.34700000
   O     94.90000000    57.23000000     2.30700000
   O     95.16000000    56.83000000     0.15700000
   H     95.93000000    53.22000000    -0.60300000
   H     94.68000000    52.31000000     1.74700000
   H     93.23000000    54.23000000     1.27700000
   H     94.08000000    54.56000000    -0.22300000
   H     96.22000000    54.68000000     1.34700000
   H     94.93000000    54.83000000     2.63700000
   N     93.19000000    51.64000000    -1.11300000
   C     92.22000000    50.69000000    -1.61300000
   H     91.33400000    51.22300000    -1.95600000
   H     92.65200000    50.13200000    -2.44400000
   H     91.94200000    50.00000000    -0.81600000
   H     93.95000000    51.96000000    -1.71300000
  Ca     95.29000000    59.62000000     1.25000000
   O     96.33000000    59.46000000    -1.34300000
   H     96.18000000    59.65000000    -2.26300000
   H     97.20000000    59.06000000    -1.31300000
   O     97.78000000    60.79000000     0.94000000
   H     97.69000000    61.41000000     1.66000000
   H     98.29000000    61.26000000     0.28000000
   O     97.48000000    58.50000000     2.48000000
   H     97.64000000    57.68000000     2.95000000
   H     98.35000000    58.87000000     2.35000000

Ca 1.00



