%chk=loop4.apoCaM-CA-Ng.Init293.run44.water4.chk
%nprocshared=20
%mem=10GB
%nosave
#b3lyp/svp scf=(tight,noincore,xqc) Test 
#IOP(5/87=12) Density=Current Pop=(MK,readradii) iop(6/33=2) iop(6/42=6)

loop4.apoCaM-CA-Ng.Init293.run44.water4 

   -3  1 
   C     21.03000000    88.57000000   -14.51000000
   C     20.71000000    89.10000000   -15.90000000
   O     21.37000000    90.00000000   -16.42000000
   H     21.84700000    89.15000000   -14.08000000
   H     20.14900000    88.65800000   -13.87500000
   H     21.32500000    87.52300000   -14.57900000
   N     19.71000000    88.52000000   -16.57000000
   C     19.26000000    88.84000000   -17.90000000
   C     20.38000000    89.20000000   -18.86000000
   O     20.91000000    90.31000000   -18.96000000
   C     18.09000000    89.82000000   -17.87000000
   C     18.35000000    91.11000000   -17.11000000
   O     17.58000000    91.44000000   -16.19000000
   O     19.34000000    91.81000000   -17.45000000
   H     19.07000000    87.97000000   -16.01000000
   H     18.89000000    87.89000000   -18.27000000
   H     17.24000000    89.34000000   -17.37000000
   H     17.95000000    90.04000000   -18.93000000
   N     20.79000000    88.19000000   -19.64000000
   C     22.00000000    88.27000000   -20.44000000
   C     21.89000000    89.39000000   -21.46000000
   O     22.58000000    90.41000000   -21.50000000
   C     23.26000000    88.26000000   -19.57000000
   C     24.59000000    88.27000000   -20.32000000
   C     23.29000000    87.01000000   -18.70000000
   C     24.85000000    87.25000000   -21.43000000
   H     20.18000000    87.41000000   -19.82000000
   H     21.98000000    87.35000000   -21.02000000
   H     23.28000000    89.07000000   -18.84000000
   H     25.38000000    88.19000000   -19.57000000
   H     24.82000000    89.23000000   -20.78000000
   H     23.25000000    86.11000000   -19.31000000
   H     24.18000000    86.91000000   -18.09000000
   H     22.37000000    86.99000000   -18.11000000
   H     25.88000000    87.45000000   -21.74000000
   H     24.91000000    86.27000000   -20.97000000
   H     24.12000000    87.27000000   -22.24000000
   N     20.94000000    89.06000000   -22.34000000
   C     20.67000000    89.77000000   -23.57000000
   C     19.62000000    90.85000000   -23.35000000
   O     18.64000000    90.62000000   -22.64000000
   C     20.30000000    88.85000000   -24.72000000
   C     19.35000000    87.73000000   -24.34000000
   O     19.04000000    87.42000000   -23.16000000
   O     18.93000000    87.09000000   -25.33000000
   H     20.34000000    88.29000000   -22.07000000
   H     21.61000000    90.24000000   -23.86000000
   H     21.17000000    88.38000000   -25.19000000
   H     19.92000000    89.49000000   -25.52000000
   N     19.76000000    92.06000000   -23.90000000
   C     20.90000000    92.53000000   -24.67000000
   C     22.17000000    92.86000000   -23.90000000
   O     22.11000000    93.24000000   -22.74000000
   H     19.06000000    92.72000000   -23.61000000
   H     20.61000000    93.39000000   -25.27000000
   H     21.08000000    91.83000000   -25.49000000
   N     23.37000000    92.65000000   -24.45000000
   C     23.67000000    92.23000000   -25.80000000
   C     23.43000000    90.73000000   -25.96000000
   O     22.84000000    90.38000000   -26.98000000
   C     25.07000000    92.65000000   -26.26000000
   C     25.34000000    92.35000000   -27.73000000
   O     26.40000000    91.77000000   -28.03000000
   O     24.50000000    92.70000000   -28.59000000
   H     24.15000000    92.85000000   -23.85000000
   H     23.04000000    92.80000000   -26.48000000
   H     25.85000000    92.16000000   -25.68000000
   H     25.26000000    93.72000000   -26.26000000
   N     23.74000000    89.86000000   -24.99000000
   C     24.86000000    90.02000000   -24.09000000
   C     26.24000000    89.56000000   -24.55000000
   O     26.34000000    88.66000000   -25.38000000
   H     23.24000000    88.99000000   -25.07000000
   H     24.64000000    89.37000000   -23.25000000
   H     24.89000000    90.95000000   -23.52000000
   N     27.31000000    89.93000000   -23.85000000
   C     28.67000000    89.50000000   -24.09000000
   C     29.42000000    89.01000000   -22.86000000
   O     30.50000000    88.43000000   -22.96000000
   C     29.46000000    90.50000000   -24.94000000
   C     28.79000000    91.02000000   -26.20000000
   C     29.81000000    91.73000000   -27.09000000
   N     29.46000000    91.92000000   -28.36000000
   O     30.94000000    92.06000000   -26.72000000
   H     27.20000000    90.79000000   -23.33000000
   H     28.65000000    88.57000000   -24.67000000
   H     30.34000000    89.89000000   -25.16000000
   H     29.65000000    91.34000000   -24.28000000
   H     28.07000000    91.76000000   -25.86000000
   H     28.21000000    90.28000000   -26.75000000
   H     28.51000000    91.81000000   -28.69000000
   H     30.22000000    92.08000000   -29.00000000
   N     28.83000000    89.12000000   -21.67000000
   C     29.35000000    88.71000000   -20.39000000
   C     29.21000000    89.89000000   -19.44000000
   O     28.17000000    90.53000000   -19.34000000
   C     28.53000000    87.57000000   -19.78000000
   C     29.29000000    86.91000000   -18.63000000
   C     28.33000000    86.40000000   -20.73000000
   H     27.91000000    89.54000000   -21.62000000
   H     30.40000000    88.41000000   -20.41000000
   H     27.57000000    87.96000000   -19.45000000
   H     29.54000000    87.63000000   -17.86000000
   H     28.76000000    86.02000000   -18.28000000
   H     30.26000000    86.57000000   -19.00000000
   H     27.64000000    85.69000000   -20.27000000
   H     27.88000000    86.66000000   -21.69000000
   H     29.26000000    85.86000000   -20.91000000
   N     30.22000000    90.14000000   -18.60000000
   C     30.33000000    91.03000000   -17.46000000
   C     30.07000000    92.50000000   -17.76000000
   O     30.10000000    93.32000000   -16.86000000
   C     31.55000000    90.82000000   -16.56000000
   C     31.63000000    89.33000000   -16.27000000
   N     32.54000000    88.62000000   -16.95000000
   O     30.90000000    88.78000000   -15.46000000
   H     31.09000000    89.69000000   -18.81000000
   H     29.54000000    90.72000000   -16.78000000
   H     31.48000000    91.24000000   -15.55000000
   H     32.47000000    91.09000000   -17.09000000
   H     33.09000000    89.16000000   -17.60000000
   H     32.58000000    87.63000000   -16.73000000
   N     29.78000000    92.89000000   -19.01000000
   C     29.60000000    94.24000000   -19.50000000
   C     28.30000000    94.86000000   -19.02000000
   O     27.23000000    94.28000000   -19.17000000
   C     29.78000000    94.38000000   -21.01000000
   C     29.67000000    95.83000000   -21.43000000
   C     28.43000000    96.29000000   -21.89000000
   C     30.74000000    96.73000000   -21.42000000
   C     28.21000000    97.61000000   -22.31000000
   C     30.51000000    98.07000000   -21.76000000
   C     29.25000000    98.55000000   -22.17000000
   O     29.09000000    99.84000000   -22.59000000
   H     29.48000000    92.16000000   -19.64000000
   H     30.40000000    94.74000000   -18.95000000
   H     29.02000000    93.85000000   -21.58000000
   H     30.74000000    93.97000000   -21.31000000
   H     27.68000000    95.53000000   -22.03000000
   H     31.70000000    96.48000000   -21.01000000
   H     27.28000000    97.81000000   -22.82000000
   H     31.26000000    98.81000000   -21.51000000
   H     28.20000000   100.02000000   -22.87000000
   N     28.43000000    95.97000000   -18.28000000
   C     27.42000000    96.49000000   -17.39000000
   C     26.67000000    95.50000000   -16.52000000
   O     25.45000000    95.63000000   -16.37000000
   C     26.42000000    97.44000000   -18.06000000
   C     26.99000000    98.63000000   -18.82000000
   C     25.84000000    99.36000000   -19.50000000
   O     25.46000000    98.91000000   -20.60000000
   O     25.45000000   100.43000000   -18.97000000
   H     29.36000000    96.35000000   -18.16000000
   H     27.95000000    97.07000000   -16.63000000
   H     25.80000000    97.85000000   -17.26000000
   H     25.86000000    96.79000000   -18.73000000
   H     27.78000000    98.33000000   -19.51000000
   H     27.46000000    99.32000000   -18.12000000
   N     27.32000000    94.50000000   -15.93000000
   C     26.78000000    93.44000000   -15.10000000
   C     27.22000000    93.51000000   -13.64000000
   O     26.75000000    92.68000000   -12.87000000
   C     26.90000000    92.05000000   -15.72000000
   C     26.26000000    91.72000000   -17.07000000
   C     24.80000000    92.11000000   -17.23000000
   O     24.07000000    92.02000000   -16.22000000
   O     24.27000000    92.39000000   -18.33000000
   H     28.27000000    94.28000000   -16.20000000
   H     25.71000000    93.62000000   -15.07000000
   H     26.64000000    91.27000000   -15.01000000
   H     27.94000000    91.80000000   -15.90000000
   H     26.22000000    90.64000000   -17.20000000
   H     26.89000000    92.17000000   -17.84000000
   N     28.05000000    94.46000000   -13.21000000
   C     28.55000000    94.61000000   -11.85000000
   H     29.42700000    95.25700000   -11.85500000
   H     27.77600000    95.05400000   -11.22400000
   H     28.82300000    93.63200000   -11.45300000
   H     28.27000000    95.16000000   -13.90000000
  Ca     21.78000000    92.46000000   -17.28700000
   O     22.95000000    94.91000000   -16.88700000
   H     23.91000000    94.94000000   -16.86700000
   H     22.70000000    95.68000000   -17.39700000
   O     20.12000000    94.46000000   -17.30700000
   H     20.09000000    95.28000000   -17.79700000
   H     19.21000000    94.29000000   -17.05700000
   O     21.15000000    92.96000000   -14.85700000
   H     21.68000000    92.64000000   -14.12700000
   H     20.43000000    93.43000000   -14.44700000
   O     21.56000000    93.03000000   -19.99700000
   H     21.99000000    92.52000000   -20.68700000
   H     20.63000000    93.03000000   -20.24700000

Ca 1.00



