%chk=loop3.apoCaM-CA-Ng.Init293.run65.water5.chk
%nprocshared=20
%mem=10GB
%nosave
#b3lyp/svp scf=(tight,noincore,xqc) Test 
#IOP(5/87=12) Density=Current Pop=(MK,readradii) iop(6/33=2) iop(6/42=6)

loop3.apoCaM-CA-Ng.Init293.run65.water5 

   0  1 
   C     58.43000000    64.24000000    37.71000000
   C     58.25000000    63.19000000    36.62000000
   O     59.19000000    62.85000000    35.91000000
   H     59.16100000    64.98000000    37.38400000
   H     57.47700000    64.73200000    37.90200000
   H     58.78200000    63.76000000    38.62300000
   N     56.99000000    62.74000000    36.54000000
   C     56.72000000    61.57000000    35.74000000
   C     55.55000000    60.78000000    36.31000000
   O     54.72000000    61.35000000    37.01000000
   C     56.44000000    61.97000000    34.29000000
   C     56.34000000    60.83000000    33.29000000
   O     55.50000000    61.03000000    32.38000000
   O     57.05000000    59.83000000    33.56000000
   H     56.23000000    63.15000000    37.06000000
   H     57.59000000    60.92000000    35.74000000
   H     57.27000000    62.60000000    33.98000000
   H     55.59000000    62.65000000    34.33000000
   N     55.55000000    59.46000000    36.08000000
   C     54.47000000    58.56000000    36.43000000
   C     53.16000000    58.92000000    35.75000000
   O     52.96000000    60.04000000    35.29000000
   C     54.36000000    58.33000000    37.94000000
   C     53.78000000    56.98000000    38.35000000
   C     53.33000000    56.94000000    39.81000000
   C     52.03000000    57.66000000    40.17000000
   N     50.85000000    56.98000000    39.62000000
   H     56.27000000    59.11000000    35.46000000
   H     54.81000000    57.60000000    36.06000000
   H     53.73000000    59.10000000    38.39000000
   H     55.37000000    58.50000000    38.30000000
   H     54.64000000    56.33000000    38.25000000
   H     52.99000000    56.66000000    37.67000000
   H     54.17000000    57.34000000    40.37000000
   H     53.31000000    55.92000000    40.17000000
   H     51.94000000    58.69000000    39.82000000
   H     51.83000000    57.77000000    41.23000000
   H     50.90000000    55.97000000    39.69000000
   H     49.95000000    57.16000000    40.05000000
   H     50.76000000    57.28000000    38.66000000
   N     52.14000000    58.06000000    35.69000000
   C     50.76000000    58.46000000    35.49000000
   C     50.18000000    59.27000000    36.64000000
   O     50.57000000    59.14000000    37.80000000
   C     49.91000000    57.32000000    34.93000000
   C     49.95000000    56.07000000    35.80000000
   O     49.46000000    55.00000000    35.35000000
   O     50.28000000    56.02000000    37.00000000
   H     52.25000000    57.11000000    36.02000000
   H     50.77000000    59.20000000    34.69000000
   H     50.19000000    57.02000000    33.92000000
   H     48.85000000    57.56000000    34.97000000
   N     49.13000000    60.04000000    36.35000000
   C     48.37000000    60.82000000    37.30000000
   C     47.21000000    61.58000000    36.66000000
   O     47.43000000    62.74000000    36.33000000
   H     48.74000000    60.10000000    35.42000000
   H     48.96000000    61.57000000    37.84000000
   H     48.05000000    60.20000000    38.14000000
   N     46.06000000    60.99000000    36.36000000
   C     45.00000000    61.69000000    35.66000000
   C     43.81000000    61.96000000    36.57000000
   O     43.43000000    60.98000000    37.21000000
   C     44.63000000    60.90000000    34.40000000
   C     43.69000000    61.63000000    33.46000000
   N     42.92000000    60.90000000    32.66000000
   O     43.57000000    62.86000000    33.54000000
   H     46.00000000    60.01000000    36.62000000
   H     45.30000000    62.69000000    35.35000000
   H     44.17000000    60.00000000    34.80000000
   H     45.52000000    60.71000000    33.80000000
   H     43.08000000    59.90000000    32.58000000
   H     42.07000000    61.24000000    32.24000000
   N     43.16000000    63.12000000    36.57000000
   C     42.26000000    63.58000000    37.61000000
   C     43.07000000    63.87000000    38.87000000
   O     44.30000000    63.88000000    38.84000000
   H     43.69000000    63.86000000    36.14000000
   H     41.50000000    62.86000000    37.90000000
   H     41.82000000    64.53000000    37.30000000
   N     42.35000000    64.12000000    39.96000000
   C     42.92000000    64.60000000    41.20000000
   C     43.92000000    63.81000000    42.03000000
   O     43.96000000    64.01000000    43.25000000
   C     43.20000000    66.10000000    41.16000000
   C     44.61000000    66.51000000    40.80000000
   C     45.60000000    66.63000000    41.78000000
   C     44.92000000    66.92000000    39.50000000
   C     46.90000000    67.08000000    41.50000000
   C     46.16000000    67.50000000    39.23000000
   C     47.20000000    67.48000000    40.18000000
   O     48.43000000    67.96000000    39.85000000
   H     41.35000000    64.19000000    39.85000000
   H     41.95000000    64.63000000    41.69000000
   H     42.86000000    66.46000000    42.14000000
   H     42.61000000    66.57000000    40.37000000
   H     45.37000000    66.26000000    42.77000000
   H     44.16000000    66.87000000    38.73000000
   H     47.66000000    67.16000000    42.26000000
   H     46.28000000    67.81000000    38.20000000
   H     48.29000000    68.38000000    39.00000000
   N     44.55000000    62.83000000    41.39000000
   C     45.37000000    61.76000000    41.94000000
   C     44.76000000    60.79000000    42.94000000
   O     45.07000000    59.60000000    43.03000000
   C     46.64000000    62.41000000    42.48000000
   C     47.41000000    63.17000000    41.40000000
   C     47.66000000    61.52000000    43.19000000
   C     47.72000000    62.49000000    40.07000000
   H     44.54000000    62.86000000    40.38000000
   H     45.57000000    61.16000000    41.05000000
   H     46.37000000    63.12000000    43.26000000
   H     48.39000000    63.51000000    41.72000000
   H     46.87000000    64.08000000    41.14000000
   H     47.74000000    60.59000000    42.64000000
   H     48.60000000    62.06000000    43.24000000
   H     47.35000000    61.27000000    44.20000000
   H     48.56000000    61.80000000    40.14000000
   H     46.85000000    62.02000000    39.62000000
   H     48.06000000    63.24000000    39.35000000
   N     43.98000000    61.35000000    43.86000000
   C     43.19000000    60.50000000    44.73000000
   C     44.02000000    59.81000000    45.80000000
   O     43.67000000    58.72000000    46.25000000
   C     42.03000000    61.33000000    45.28000000
   O     41.19000000    61.59000000    44.18000000
   H     43.74000000    62.33000000    43.78000000
   H     42.74000000    59.67000000    44.19000000
   H     42.41000000    62.29000000    45.62000000
   H     41.49000000    60.85000000    46.10000000
   H     40.65000000    62.34000000    44.44000000
   N     45.18000000    60.39000000    46.13000000
   C     46.26000000    59.90000000    46.95000000
   C     46.68000000    58.48000000    46.60000000
   O     46.96000000    57.61000000    47.43000000
   C     45.70000000    60.11000000    48.36000000
   H     45.33000000    61.26000000    45.64000000
   H     47.14000000    60.53000000    46.88000000
   H     46.45000000    59.79000000    49.09000000
   H     45.45000000    61.15000000    48.58000000
   H     44.75000000    59.58000000    48.40000000
   N     46.70000000    58.20000000    45.30000000
   C     47.21000000    56.92000000    44.86000000
   C     48.67000000    56.99000000    44.45000000
   O     49.05000000    58.01000000    43.89000000
   C     46.39000000    56.45000000    43.66000000
   H     46.15000000    58.73000000    44.63000000
   H     47.05000000    56.10000000    45.57000000
   H     46.21000000    57.29000000    43.00000000
   H     46.76000000    55.50000000    43.26000000
   H     45.37000000    56.21000000    43.95000000
   N     49.40000000    55.88000000    44.64000000
   C     50.70000000    55.51000000    44.13000000
   C     51.81000000    56.38000000    44.70000000
   O     52.88000000    56.47000000    44.09000000
   C     50.63000000    55.38000000    42.61000000
   C     49.82000000    54.11000000    42.33000000
   C     49.66000000    53.92000000    40.83000000
   O     48.53000000    53.61000000    40.39000000
   O     50.62000000    54.16000000    40.06000000
   H     48.95000000    55.12000000    45.14000000
   H     50.93000000    54.50000000    44.48000000
   H     51.62000000    55.33000000    42.16000000
   H     50.20000000    56.30000000    42.21000000
   H     48.84000000    54.14000000    42.79000000
   H     50.39000000    53.28000000    42.74000000
   N     51.66000000    57.05000000    45.84000000
   C     52.48000000    58.19000000    46.20000000
   H     53.40500000    58.16800000    45.62300000
   H     51.93900000    59.11100000    45.98300000
   H     52.71500000    58.14800000    47.26400000
   H     50.83000000    56.90000000    46.40000000
  Ca     49.53000000    53.70000000    37.77000000
   O     47.37000000    55.19000000    37.70000000
   H     46.57000000    55.10000000    38.20000000
   H     47.08000000    55.18000000    36.78000000
   O     47.62000000    51.85000000    37.96000000
   H     47.83000000    50.99000000    38.31000000
   H     46.66000000    51.89000000    37.96000000
   O     49.55000000    51.95000000    35.65000000
   H     49.46000000    51.02000000    35.86000000
   H     49.37000000    52.00000000    34.71000000
   O     52.29000000    54.01000000    37.25000000
   H     53.15000000    53.84000000    37.64000000
   H     52.49000000    54.44000000    36.41000000
   O     50.70000000    51.37000000    38.38000000
   H     51.33000000    50.76000000    37.99000000
   H     50.01000000    50.81000000    38.72000000

Ca 1.00



