%chk=loop3.apoCaM-CA-Ng.Init295.run93.water5.chk
%nprocshared=20
%mem=10GB
%nosave
#b3lyp/svp scf=(tight,noincore,xqc) Test 
#IOP(5/87=12) Density=Current Pop=(MK,readradii) iop(6/33=2) iop(6/42=6)

loop3.apoCaM-CA-Ng.Init295.run93.water5 

   0  1 
   C    102.47000000    77.66000000    82.69000000
   C    101.09000000    77.16000000    82.29000000
   O    100.35000000    77.93000000    81.67000000
   H    103.15300000    77.55300000    81.84700000
   H    102.40800000    78.71000000    82.97600000
   H    102.83900000    77.07500000    83.53200000
   N    100.75000000    75.92000000    82.65000000
   C     99.56000000    75.19000000    82.27000000
   C     98.67000000    75.22000000    83.50000000
   O     98.87000000    74.65000000    84.57000000
   C     99.85000000    73.81000000    81.70000000
   C     98.60000000    73.04000000    81.29000000
   O     98.60000000    72.04000000    80.53000000
   O     97.47000000    73.52000000    81.49000000
   H    101.39000000    75.47000000    83.29000000
   H     99.02000000    75.73000000    81.49000000
   H    100.31000000    73.23000000    82.50000000
   H    100.57000000    73.80000000    80.88000000
   N     97.58000000    75.99000000    83.42000000
   C     96.60000000    76.30000000    84.44000000
   C     95.51000000    75.25000000    84.54000000
   O     94.77000000    75.30000000    85.52000000
   C     96.18000000    77.76000000    84.29000000
   C     97.30000000    78.77000000    84.07000000
   C     98.27000000    78.73000000    85.25000000
   C     99.24000000    79.91000000    85.23000000
   N    100.13000000    79.82000000    86.40000000
   H     97.44000000    76.31000000    82.47000000
   H     97.07000000    76.22000000    85.42000000
   H     95.54000000    78.09000000    85.12000000
   H     95.59000000    77.88000000    83.38000000
   H     96.90000000    79.78000000    84.11000000
   H     97.74000000    78.56000000    83.10000000
   H     98.88000000    77.82000000    85.20000000
   H     97.66000000    78.78000000    86.15000000
   H     98.61000000    80.80000000    85.28000000
   H     99.79000000    79.89000000    84.30000000
   H    100.63000000    80.69000000    86.44000000
   H     99.66000000    79.86000000    87.29000000
   H    100.79000000    79.06000000    86.33000000
   N     95.37000000    74.27000000    83.64000000
   C     94.54000000    73.09000000    83.83000000
   C     95.38000000    71.84000000    84.05000000
   O     94.89000000    71.05000000    84.85000000
   C     93.60000000    72.87000000    82.65000000
   C     94.38000000    72.77000000    81.35000000
   O     94.50000000    73.84000000    80.73000000
   O     94.90000000    71.70000000    80.97000000
   H     95.95000000    74.31000000    82.82000000
   H     93.90000000    73.18000000    84.71000000
   H     92.86000000    73.67000000    82.58000000
   H     93.04000000    71.97000000    82.93000000
   N     96.54000000    71.73000000    83.39000000
   C     97.37000000    70.56000000    83.60000000
   C     96.78000000    69.24000000    83.12000000
   O     96.84000000    68.26000000    83.86000000
   H     96.92000000    72.43000000    82.77000000
   H     97.70000000    70.44000000    84.63000000
   H     98.28000000    70.70000000    83.03000000
   N     96.08000000    69.29000000    81.98000000
   C     95.70000000    68.09000000    81.27000000
   C     96.85000000    67.53000000    80.44000000
   O     97.77000000    68.23000000    80.01000000
   C     94.47000000    68.50000000    80.47000000
   C     93.77000000    67.24000000    79.98000000
   N     92.72000000    66.82000000    80.68000000
   O     94.25000000    66.54000000    79.08000000
   H     95.91000000    70.20000000    81.59000000
   H     95.39000000    67.31000000    81.97000000
   H     94.79000000    69.11000000    79.63000000
   H     93.74000000    68.98000000    81.13000000
   H     92.47000000    67.45000000    81.44000000
   H     92.14000000    66.07000000    80.34000000
   N     96.94000000    66.21000000    80.34000000
   C     98.06000000    65.58000000    79.66000000
   C     97.67000000    64.54000000    78.63000000
   O     98.52000000    64.13000000    77.85000000
   H     96.30000000    65.61000000    80.85000000
   H     98.61000000    65.16000000    80.50000000
   H     98.77000000    66.27000000    79.20000000
   N     96.39000000    64.19000000    78.45000000
   C     95.89000000    63.09000000    77.65000000
   C     95.35000000    63.69000000    76.36000000
   O     94.88000000    64.83000000    76.38000000
   C     94.93000000    62.24000000    78.48000000
   C     94.57000000    60.84000000    78.02000000
   C     93.30000000    60.48000000    77.55000000
   C     95.50000000    59.80000000    78.07000000
   C     92.94000000    59.19000000    77.15000000
   C     95.17000000    58.46000000    77.81000000
   C     93.92000000    58.17000000    77.23000000
   O     93.45000000    56.91000000    77.01000000
   H     95.74000000    64.83000000    78.88000000
   H     96.72000000    62.47000000    77.32000000
   H     94.05000000    62.89000000    78.53000000
   H     95.39000000    62.16000000    79.46000000
   H     92.51000000    61.21000000    77.53000000
   H     96.52000000    59.98000000    78.37000000
   H     91.97000000    58.94000000    76.75000000
   H     95.87000000    57.67000000    78.04000000
   H     94.10000000    56.22000000    77.17000000
   N     95.40000000    62.94000000    75.26000000
   C     94.80000000    63.26000000    73.99000000
   C     93.28000000    63.16000000    73.99000000
   O     92.58000000    63.33000000    74.99000000
   C     95.42000000    64.53000000    73.42000000
   C     94.60000000    65.81000000    73.59000000
   C     95.75000000    64.38000000    71.93000000
   C     95.47000000    67.06000000    73.61000000
   H     95.91000000    62.07000000    75.21000000
   H     95.12000000    62.47000000    73.32000000
   H     96.36000000    64.72000000    73.93000000
   H     94.07000000    65.84000000    74.54000000
   H     93.86000000    65.97000000    72.80000000
   H     96.49000000    65.12000000    71.63000000
   H     96.14000000    63.37000000    71.77000000
   H     94.93000000    64.53000000    71.23000000
   H     96.09000000    67.12000000    74.51000000
   H     95.98000000    67.24000000    72.66000000
   H     94.77000000    67.88000000    73.69000000
   N     92.78000000    62.88000000    72.78000000
   C     91.39000000    63.02000000    72.38000000
   C     90.82000000    61.93000000    71.48000000
   O     89.64000000    61.59000000    71.50000000
   C     91.14000000    64.36000000    71.71000000
   O     91.95000000    64.61000000    70.59000000
   H     93.41000000    62.79000000    72.00000000
   H     90.72000000    62.97000000    73.24000000
   H     91.36000000    65.16000000    72.43000000
   H     90.08000000    64.45000000    71.46000000
   H     91.92000000    65.57000000    70.53000000
   N     91.69000000    61.38000000    70.63000000
   C     91.53000000    60.36000000    69.62000000
   C     90.39000000    60.82000000    68.72000000
   O     89.37000000    60.14000000    68.75000000
   C     91.39000000    58.99000000    70.27000000
   H     92.60000000    61.83000000    70.58000000
   H     92.41000000    60.31000000    68.99000000
   H     90.66000000    58.98000000    71.08000000
   H     91.03000000    58.31000000    69.50000000
   H     92.30000000    58.63000000    70.74000000
   N     90.36000000    61.86000000    67.88000000
   C     91.41000000    62.85000000    67.72000000
   C     92.23000000    62.56000000    66.47000000
   O     91.77000000    61.91000000    65.54000000
   C     90.78000000    64.24000000    67.66000000
   H     89.59000000    61.87000000    67.22000000
   H     92.07000000    62.89000000    68.59000000
   H     90.86000000    64.64000000    66.65000000
   H     89.80000000    64.28000000    68.13000000
   H     91.44000000    64.96000000    68.14000000
   N     93.49000000    62.99000000    66.43000000
   C     94.30000000    63.75000000    67.36000000
   C     95.64000000    63.12000000    67.68000000
   O     96.09000000    63.00000000    68.82000000
   C     94.32000000    65.18000000    66.81000000
   C     94.80000000    66.06000000    67.96000000
   C     94.95000000    67.52000000    67.55000000
   O     96.02000000    67.84000000    66.98000000
   O     94.04000000    68.35000000    67.73000000
   H     94.09000000    62.67000000    65.68000000
   H     93.81000000    63.77000000    68.33000000
   H     93.31000000    65.47000000    66.50000000
   H     95.03000000    65.25000000    65.98000000
   H     95.79000000    65.71000000    68.25000000
   H     94.29000000    65.90000000    68.91000000
   N     96.28000000    62.64000000    66.61000000
   C     97.66000000    62.19000000    66.64000000
   H     98.28000000    62.95200000    67.11200000
   H     97.72800000    61.26300000    67.20900000
   H     98.00900000    62.01800000    65.62200000
   H     95.86000000    62.69000000    65.69000000
  Ca     96.37000000    72.87000000    79.06000000
   O     94.19000000    71.74000000    77.85000000
   H     93.47000000    71.60000000    78.46000000
   H     93.80000000    71.62000000    76.98000000
   O     95.53000000    75.36000000    78.25000000
   H     95.49000000    76.20000000    78.72000000
   H     94.87000000    75.45000000    77.56000000
   O     98.55000000    74.13000000    78.08000000
   H     99.20000000    74.77000000    78.38000000
   H     98.91000000    73.79000000    77.26000000
   O     96.91000000    70.31000000    78.49000000
   H     97.43000000    69.81000000    79.12000000
   H     96.75000000    69.70000000    77.77000000
   O     96.41000000    73.13000000    76.19000000
   H     96.95000000    72.91000000    75.43000000
   H     95.63000000    73.53000000    75.81000000

Ca 1.00



