%chk=loop1.holoCaM.run61.water2.chk
%nprocshared=20
%mem=10GB
%nosave
#b3lyp/svp scf=(tight,noincore,xqc) Test 
#IOP(5/87=12) Density=Current Pop=(MK,readradii) iop(6/33=2) iop(6/42=6)

loop1.holoCaM.run61.water2 

   0  1 
   C     60.70000000    77.93000000    -6.21000000
   C     59.60000000    77.07000000    -5.61000000
   O     59.39000000    75.97000000    -6.12000000
   H     61.59700000    77.32700000    -6.34800000
   H     60.37300000    78.31900000    -7.17400000
   H     60.92000000    78.76000000    -5.53800000
   N     58.92000000    77.46000000    -4.53000000
   C     57.66000000    76.91000000    -4.06000000
   C     56.53000000    77.38000000    -4.97000000
   O     56.14000000    78.55000000    -5.03000000
   C     57.45000000    77.13000000    -2.57000000
   C     56.14000000    76.55000000    -2.05000000
   O     55.58000000    77.09000000    -1.07000000
   O     55.60000000    75.67000000    -2.75000000
   H     59.35000000    78.18000000    -3.98000000
   H     57.77000000    75.84000000    -4.24000000
   H     57.51000000    78.19000000    -2.34000000
   H     58.31000000    76.71000000    -2.05000000
   N     56.04000000    76.46000000    -5.81000000
   C     55.15000000    76.71000000    -6.91000000
   C     53.65000000    76.87000000    -6.67000000
   O     52.86000000    77.18000000    -7.56000000
   C     55.41000000    75.64000000    -7.97000000
   C     54.70000000    75.66000000    -9.32000000
   C     55.34000000    74.65000000   -10.28000000
   C     54.93000000    73.21000000   -10.00000000
   N     53.63000000    72.81000000   -10.58000000
   H     56.65000000    75.65000000    -5.87000000
   H     55.51000000    77.57000000    -7.48000000
   H     55.09000000    74.68000000    -7.57000000
   H     56.49000000    75.64000000    -8.11000000
   H     54.79000000    76.65000000    -9.75000000
   H     53.68000000    75.33000000    -9.13000000
   H     56.43000000    74.61000000   -10.27000000
   H     55.19000000    74.90000000   -11.33000000
   H     54.95000000    72.94000000    -8.94000000
   H     55.67000000    72.59000000   -10.49000000
   H     53.37000000    71.89000000   -10.27000000
   H     52.90000000    73.50000000   -10.50000000
   H     53.66000000    72.70000000   -11.58000000
   N     53.27000000    76.60000000    -5.42000000
   C     51.91000000    76.47000000    -4.93000000
   C     51.75000000    76.94000000    -3.50000000
   O     50.65000000    77.06000000    -2.97000000
   C     51.31000000    75.07000000    -5.06000000
   C     52.20000000    73.97000000    -4.52000000
   O     52.14000000    72.83000000    -5.02000000
   O     52.99000000    74.15000000    -3.57000000
   H     53.98000000    76.18000000    -4.83000000
   H     51.25000000    77.11000000    -5.51000000
   H     51.15000000    74.93000000    -6.13000000
   H     50.31000000    75.04000000    -4.63000000
   N     52.80000000    77.38000000    -2.79000000
   C     52.78000000    78.19000000    -1.59000000
   C     52.53000000    77.48000000    -0.26000000
   O     52.03000000    78.17000000     0.63000000
   H     53.75000000    77.16000000    -3.03000000
   H     51.93000000    78.86000000    -1.67000000
   H     53.74000000    78.71000000    -1.55000000
   N     52.80000000    76.18000000    -0.11000000
   C     52.73000000    75.42000000     1.12000000
   C     53.96000000    75.58000000     2.01000000
   O     54.09000000    75.03000000     3.11000000
   C     52.45000000    73.94000000     0.85000000
   C     53.45000000    73.34000000    -0.12000000
   O     54.64000000    73.74000000    -0.13000000
   O     53.08000000    72.61000000    -1.06000000
   H     53.08000000    75.67000000    -0.93000000
   H     51.88000000    75.77000000     1.70000000
   H     51.46000000    73.84000000     0.40000000
   H     52.51000000    73.36000000     1.77000000
   N     54.84000000    76.51000000     1.66000000
   C     56.08000000    76.75000000     2.38000000
   C     57.26000000    75.82000000     2.13000000
   O     58.22000000    75.87000000     2.90000000
   H     54.78000000    76.80000000     0.69000000
   H     55.97000000    76.71000000     3.46000000
   H     56.42000000    77.73000000     2.06000000
   N     57.15000000    74.85000000     1.22000000
   C     58.01000000    73.71000000     1.05000000
   C     58.24000000    73.43000000    -0.43000000
   O     57.47000000    73.89000000    -1.27000000
   C     57.59000000    72.35000000     1.61000000
   C     57.46000000    72.48000000     3.13000000
   O     56.33000000    71.93000000     1.14000000
   H     56.38000000    74.94000000     0.56000000
   H     58.98000000    73.97000000     1.48000000
   H     58.27000000    71.54000000     1.34000000
   H     55.77000000    72.71000000     1.15000000
   H     58.48000000    72.60000000     3.48000000
   H     56.90000000    73.33000000     3.52000000
   H     56.97000000    71.55000000     3.41000000
   N     59.35000000    72.77000000    -0.76000000
   C     59.70000000    72.25000000    -2.06000000
   C     59.55000000    70.74000000    -1.95000000
   O     60.16000000    70.12000000    -1.09000000
   C     61.08000000    72.82000000    -2.36000000
   C     61.07000000    74.32000000    -2.63000000
   C     61.70000000    71.96000000    -3.45000000
   C     62.40000000    74.90000000    -3.11000000
   H     59.94000000    72.49000000     0.01000000
   H     59.00000000    72.66000000    -2.79000000
   H     61.72000000    72.71000000    -1.48000000
   H     60.86000000    74.86000000    -1.70000000
   H     60.24000000    74.53000000    -3.31000000
   H     62.10000000    71.06000000    -2.98000000
   H     61.02000000    71.63000000    -4.24000000
   H     62.53000000    72.46000000    -3.97000000
   H     63.27000000    74.50000000    -2.57000000
   H     62.57000000    74.65000000    -4.16000000
   H     62.27000000    75.96000000    -2.90000000
   N     58.63000000    70.20000000    -2.76000000
   C     58.48000000    68.81000000    -3.16000000
   C     59.51000000    68.29000000    -4.15000000
   O     60.18000000    69.07000000    -4.82000000
   C     57.03000000    68.50000000    -3.52000000
   C     56.63000000    68.86000000    -4.95000000
   O     56.75000000    67.16000000    -3.19000000
   H     58.22000000    70.87000000    -3.40000000
   H     58.75000000    68.15000000    -2.33000000
   H     56.33000000    68.94000000    -2.82000000
   H     56.06000000    67.18000000    -2.53000000
   H     56.99000000    69.87000000    -5.17000000
   H     57.03000000    68.16000000    -5.69000000
   H     55.54000000    68.83000000    -4.98000000
   N     59.60000000    66.97000000    -4.31000000
   C     60.49000000    66.30000000    -5.23000000
   C     60.52000000    66.92000000    -6.62000000
   O     61.53000000    67.23000000    -7.24000000
   C     60.01000000    64.86000000    -5.40000000
   C     61.08000000    63.99000000    -6.05000000
   O     59.63000000    64.19000000    -4.22000000
   H     58.93000000    66.39000000    -3.82000000
   H     61.52000000    66.36000000    -4.87000000
   H     59.12000000    64.88000000    -6.03000000
   H     58.85000000    63.75000000    -4.55000000
   H     60.73000000    62.99000000    -6.28000000
   H     61.42000000    64.31000000    -7.04000000
   H     61.90000000    63.82000000    -5.35000000
   N     59.39000000    67.15000000    -7.30000000
   C     59.26000000    67.67000000    -8.65000000
   C     59.70000000    69.13000000    -8.76000000
   O     60.23000000    69.48000000    -9.81000000
   C     57.83000000    67.53000000    -9.18000000
   C     57.51000000    66.08000000    -9.54000000
   C     56.39000000    66.08000000   -10.56000000
   C     56.10000000    64.62000000   -10.93000000
   N     54.78000000    64.48000000   -11.55000000
   H     58.57000000    66.73000000    -6.89000000
   H     59.93000000    67.13000000    -9.31000000
   H     57.65000000    68.20000000   -10.02000000
   H     57.16000000    67.89000000    -8.40000000
   H     57.16000000    65.57000000    -8.64000000
   H     58.42000000    65.60000000    -9.89000000
   H     56.73000000    66.60000000   -11.46000000
   H     55.53000000    66.56000000   -10.09000000
   H     56.10000000    63.98000000   -10.05000000
   H     56.94000000    64.39000000   -11.59000000
   H     53.98000000    64.66000000   -10.95000000
   H     54.72000000    65.07000000   -12.37000000
   H     54.63000000    63.55000000   -11.92000000
   N     59.50000000    69.92000000    -7.71000000
   C     59.70000000    71.35000000    -7.58000000
   C     61.21000000    71.47000000    -7.40000000
   O     61.70000000    72.53000000    -7.78000000
   C     58.95000000    71.97000000    -6.41000000
   C     57.43000000    72.02000000    -6.61000000
   C     56.80000000    72.52000000    -5.32000000
   O     57.17000000    72.05000000    -4.22000000
   O     55.94000000    73.43000000    -5.36000000
   H     59.28000000    69.43000000    -6.85000000
   H     59.39000000    71.89000000    -8.47000000
   H     59.28000000    72.97000000    -6.15000000
   H     59.11000000    71.28000000    -5.58000000
   H     57.15000000    71.01000000    -6.88000000
   H     57.28000000    72.72000000    -7.43000000
   N     62.00000000    70.60000000    -6.78000000
   C     63.45000000    70.73000000    -6.78000000
   H     63.89100000    69.87500000    -7.29300000
   H     63.73300000    71.64800000    -7.29500000
   H     63.81200000    70.76300000    -5.75300000
   H     61.66000000    69.79000000    -6.27000000
  Ca     55.27000000    73.23000000    -2.77500000
   O     55.78000000    71.02000000    -1.27500000
   H     56.25000000    71.40000000    -0.52500000
   H     55.31000000    70.27000000    -0.89500000
   O     54.05000000    71.34000000    -4.26500000
   H     53.40000000    71.96000000    -4.59500000
   H     53.71000000    70.48000000    -4.51500000

Ca 1.00



