%chk=loop2.apoCaM-CA-Ng.Init293.run4.water5.chk
%nprocshared=20
%mem=10GB
%nosave
#b3lyp/svp scf=(tight,noincore,xqc) Test 
#IOP(5/87=12) Density=Current Pop=(MK,readradii) iop(6/33=2) iop(6/42=6)

loop2.apoCaM-CA-Ng.Init293.run4.water5 

   -2  1 
   C     55.78000000    34.37000000    26.53000000
   C     55.90000000    33.71000000    25.16000000
   O     55.24000000    34.05000000    24.18000000
   H     54.72700000    34.49900000    26.77900000
   H     56.25600000    33.73900000    27.28100000
   H     56.27000000    35.34300000    26.50900000
   N     56.82000000    32.75000000    25.06000000
   C     56.98000000    32.01000000    23.82000000
   C     57.49000000    30.60000000    24.08000000
   O     57.09000000    29.63000000    23.43000000
   C     57.91000000    32.80000000    22.90000000
   C     57.87000000    32.16000000    21.52000000
   O     58.74000000    31.35000000    21.14000000
   O     57.00000000    32.58000000    20.72000000
   H     57.44000000    32.70000000    25.86000000
   H     56.01000000    31.98000000    23.34000000
   H     58.94000000    32.72000000    23.26000000
   H     57.57000000    33.83000000    22.90000000
   N     58.53000000    30.57000000    24.91000000
   C     59.35000000    29.42000000    25.26000000
   C     58.56000000    28.13000000    25.39000000
   O     58.78000000    27.12000000    24.72000000
   C     60.46000000    29.44000000    24.21000000
   H     58.88000000    31.48000000    25.17000000
   H     59.73000000    29.74000000    26.23000000
   H     60.12000000    29.08000000    23.24000000
   H     60.87000000    30.44000000    24.07000000
   H     61.26000000    28.73000000    24.45000000
   N     57.63000000    28.16000000    26.34000000
   C     56.78000000    27.06000000    26.74000000
   C     56.03000000    26.31000000    25.65000000
   O     55.83000000    25.10000000    25.72000000
   C     57.44000000    26.01000000    27.64000000
   C     58.34000000    26.56000000    28.74000000
   O     57.93000000    27.31000000    29.65000000
   O     59.53000000    26.19000000    28.64000000
   H     57.47000000    29.05000000    26.80000000
   H     56.01000000    27.46000000    27.40000000
   H     58.01000000    25.44000000    26.92000000
   H     56.69000000    25.42000000    28.18000000
   N     55.65000000    27.00000000    24.57000000
   C     55.12000000    26.50000000    23.32000000
   C     53.66000000    26.07000000    23.29000000
   O     52.71000000    26.84000000    23.20000000
   H     55.92000000    27.97000000    24.56000000
   H     55.76000000    25.73000000    22.90000000
   H     55.27000000    27.28000000    22.56000000
   N     53.47000000    24.75000000    23.38000000
   C     52.17000000    24.12000000    23.37000000
   C     51.18000000    24.59000000    24.43000000
   O     51.46000000    24.54000000    25.63000000
   C     52.28000000    22.60000000    23.35000000
   C     51.02000000    22.01000000    22.73000000
   N     50.38000000    20.99000000    23.32000000
   O     50.54000000    22.33000000    21.64000000
   H     54.27000000    24.14000000    23.29000000
   H     51.75000000    24.31000000    22.38000000
   H     52.41000000    22.13000000    24.33000000
   H     53.09000000    22.30000000    22.69000000
   H     50.87000000    20.62000000    24.12000000
   H     49.52000000    20.66000000    22.90000000
   N     50.00000000    25.02000000    23.99000000
   C     48.95000000    25.62000000    24.79000000
   C     49.12000000    27.11000000    25.04000000
   O     48.18000000    27.58000000    25.67000000
   H     49.78000000    24.80000000    23.03000000
   H     48.93000000    25.06000000    25.72000000
   H     47.95000000    25.62000000    24.34000000
   N     50.15000000    27.82000000    24.58000000
   C     50.22000000    29.26000000    24.60000000
   C     50.32000000    29.77000000    26.03000000
   O     50.78000000    29.14000000    26.99000000
   C     51.33000000    29.80000000    23.70000000
   C     51.59000000    31.29000000    23.51000000
   O     52.50000000    29.22000000    24.23000000
   H     50.83000000    27.25000000    24.09000000
   H     49.31000000    29.63000000    24.13000000
   H     51.25000000    29.42000000    22.68000000
   H     52.52000000    28.31000000    23.91000000
   H     52.18000000    31.66000000    24.35000000
   H     52.25000000    31.52000000    22.67000000
   H     50.66000000    31.86000000    23.47000000
   N     49.86000000    31.00000000    26.23000000
   C     49.90000000    31.73000000    27.49000000
   C     51.31000000    31.61000000    28.07000000
   O     52.24000000    31.83000000    27.31000000
   C     49.36000000    33.15000000    27.33000000
   C     49.18000000    33.94000000    28.62000000
   C     50.17000000    33.99000000    26.35000000
   C     48.69000000    35.37000000    28.45000000
   H     49.48000000    31.48000000    25.42000000
   H     49.21000000    31.20000000    28.14000000
   H     48.34000000    33.11000000    26.96000000
   H     50.14000000    33.97000000    29.14000000
   H     48.50000000    33.46000000    29.33000000
   H     51.23000000    33.98000000    26.63000000
   H     49.93000000    33.63000000    25.35000000
   H     49.84000000    35.03000000    26.32000000
   H     48.12000000    35.81000000    29.27000000
   H     49.55000000    36.03000000    28.32000000
   H     48.03000000    35.44000000    27.58000000
   N     51.46000000    31.20000000    29.33000000
   C     52.62000000    30.47000000    29.80000000
   C     52.20000000    29.14000000    30.40000000
   O     52.73000000    28.64000000    31.39000000
   C     53.59000000    31.30000000    30.64000000
   C     54.93000000    30.58000000    30.74000000
   O     55.21000000    29.62000000    30.00000000
   O     55.67000000    30.82000000    31.72000000
   H     50.65000000    31.43000000    29.90000000
   H     53.23000000    30.17000000    28.96000000
   H     53.20000000    31.53000000    31.63000000
   H     53.70000000    32.30000000    30.21000000
   N     51.30000000    28.39000000    29.75000000
   C     50.94000000    27.02000000    30.01000000
   C     50.18000000    26.82000000    31.32000000
   O     50.58000000    25.85000000    31.96000000
   C     50.13000000    26.43000000    28.86000000
   C     49.56000000    25.04000000    29.02000000
   C     50.35000000    23.97000000    29.42000000
   C     48.22000000    24.73000000    28.72000000
   C     49.92000000    22.64000000    29.51000000
   C     47.71000000    23.45000000    28.94000000
   C     48.56000000    22.39000000    29.28000000
   H     50.74000000    28.85000000    29.04000000
   H     51.88000000    26.47000000    30.07000000
   H     50.77000000    26.47000000    27.97000000
   H     49.31000000    27.11000000    28.64000000
   H     51.38000000    24.24000000    29.61000000
   H     47.47000000    25.44000000    28.39000000
   H     50.51000000    21.86000000    29.97000000
   H     46.66000000    23.32000000    28.75000000
   H     48.15000000    21.43000000    29.58000000
   N     49.15000000    27.60000000    31.64000000
   C     48.72000000    28.87000000    31.09000000
   C     49.22000000    30.08000000    31.86000000
   O     49.10000000    31.19000000    31.34000000
   C     47.20000000    28.76000000    31.09000000
   C     46.95000000    28.03000000    32.41000000
   C     48.13000000    27.06000000    32.51000000
   H     49.09000000    29.13000000    30.09000000
   H     46.70000000    29.73000000    31.11000000
   H     46.88000000    28.21000000    30.20000000
   H     47.03000000    28.64000000    33.30000000
   H     46.01000000    27.49000000    32.38000000
   H     48.43000000    27.03000000    33.56000000
   H     47.79000000    26.14000000    32.03000000
   N     49.74000000    29.92000000    33.08000000
   C     49.69000000    30.97000000    34.08000000
   C     50.76000000    32.01000000    33.81000000
   O     51.92000000    31.85000000    34.19000000
   C     49.96000000    30.28000000    35.41000000
   C     49.68000000    31.29000000    36.53000000
   C     49.78000000    30.55000000    37.86000000
   O     50.56000000    30.91000000    38.77000000
   O     49.06000000    29.55000000    38.05000000
   H     49.68000000    28.97000000    33.43000000
   H     48.71000000    31.44000000    34.00000000
   H     50.97000000    29.91000000    35.55000000
   H     49.16000000    29.54000000    35.46000000
   H     48.67000000    31.69000000    36.45000000
   H     50.41000000    32.10000000    36.43000000
   N     50.30000000    33.20000000    33.39000000
   C     51.00000000    34.44000000    33.14000000
   H     51.96600000    34.22600000    32.68200000
   H     50.41000000    35.06200000    32.46700000
   H     51.15400000    34.96700000    34.08200000
   H     49.32000000    33.32000000    33.20000000
  Ca     57.00000000    28.54000000    31.52000000
   O     58.87000000    30.22000000    30.57000000
   H     59.21000000    31.11000000    30.46000000
   H     59.57000000    29.65000000    30.25000000
   O     55.95000000    28.46000000    33.77000000
   H     56.41000000    28.31000000    34.60000000
   H     55.06000000    28.71000000    34.03000000
   O     54.86000000    27.00000000    31.34000000
   H     54.59000000    26.36000000    32.01000000
   H     54.06000000    27.50000000    31.16000000
   O     59.22000000    29.02000000    33.19000000
   H     60.07000000    28.73000000    32.85000000
   H     59.35000000    29.95000000    33.37000000
   O     57.83000000    26.11000000    32.40000000
   H     57.27000000    25.34000000    32.32000000
   H     58.71000000    25.79000000    32.22000000

Ca 1.00



